ver_1.2
     RDKit          3D

 20 22  0  0  0  0  0  0  0  0999 V2000
    4.7161    0.5442   -1.3010 C   0  0  0  0  0  0  0  0  0  0  0  0
    4.4160    0.8985    0.0804 N   0  0  0  0  0  0  0  0  0  0  0  0
    5.0705    1.7385    0.8481 N   0  0  0  0  0  0  0  0  0  0  0  0
    4.5036    1.8127    2.0654 C   0  0  0  0  0  0  0  0  0  0  0  0
    3.4251    0.9555    2.0370 C   0  0  0  0  0  0  0  0  0  0  0  0
    3.3843    0.3830    0.7686 C   0  0  0  0  0  0  0  0  0  0  0  0
    2.4215   -0.5711    0.2928 C   0  0  0  0  0  0  0  0  0  0  0  0
    2.4848   -0.9933   -0.8902 O   0  0  0  0  0  0  0  0  0  0  0  0
    1.3658   -1.0816    1.1139 N   0  0  0  0  0  0  0  0  0  0  0  0
    0.4057   -2.0494    0.5973 C   0  0  0  0  0  0  0  0  0  0  0  0
   -0.6088   -1.3641   -0.2897 C   0  0  0  0  0  0  0  0  0  0  0  0
   -0.2062   -1.1282   -1.7126 C   0  0  0  0  0  0  0  0  0  0  0  0
   -1.7856   -0.3077   -2.2436 S   0  0  0  0  0  0  0  0  0  0  0  0
   -2.6207   -0.4185   -0.6178 C   0  0  0  0  0  0  0  0  0  0  0  0
   -3.9912    0.1062   -0.4264 C   0  0  0  0  0  0  0  0  0  0  0  0
   -4.6943    0.0782    0.7055 N   0  0  0  0  0  0  0  0  0  0  0  0
   -5.8779    0.6479    0.4632 C   0  0  0  0  0  0  0  0  0  0  0  0
   -5.9117    1.0315   -0.8231 N   0  0  0  0  0  0  0  0  0  0  0  0
   -4.7555    0.6954   -1.3537 N   0  0  0  0  0  0  0  0  0  0  0  0
   -1.7413   -0.9775    0.0353 N   0  0  0  0  0  0  0  0  0  0  0  0
  1  2  1  0
  2  3  1  0
  3  4  2  0
  4  5  1  0
  5  6  2  0
  6  7  1  0
  7  8  2  0
  7  9  1  0
  9 10  1  0
 10 11  1  0
 11 12  2  0
 12 13  1  0
 13 14  1  0
 14 15  1  0
 15 16  2  0
 16 17  1  0
 17 18  2  0
 18 19  1  0
 14 20  2  0
  6  2  1  0
 20 11  1  0
 19 15  1  0
M  END
>  <ref_url>  (1) 
https://hippo.winokan.com

>  <submitter_name>  (1) 
Max Winokan

>  <submitter_email>  (1) 
max.winokan@diamond.ac.uk

>  <submitter_institution>  (1) 
DLS

>  <generation_date>  (1) 
2024-05-03

>  <method>  (1) 
base_curated

>  <smiles>  (1) 
smiles

>  <ref_mols>  (1) 
fragment inspirations

>  <original ID>  (1) 
original ID

$$$$
CHIKVMac-DLS-JA001
     RDKit          3D

 20 22  0  0  0  0  0  0  0  0999 V2000
    8.7292    8.0580   15.0299 C   0  0  0  0  0  0  0  0  0  0  0  0
    9.2532    7.9212   16.2805 N   0  0  0  0  0  0  0  0  0  0  0  0
   10.4173    7.1860   16.1502 N   0  0  0  0  0  0  0  0  0  0  0  0
    9.5346    7.4434   14.1455 N   0  0  0  0  0  0  0  0  0  0  0  0
   10.5650    6.9196   14.8598 C   0  0  0  0  0  0  0  0  0  0  0  0
   11.7757    6.3210   14.2426 C   0  0  0  0  0  0  0  0  0  0  0  0
   11.8370    4.7719   13.4951 S   0  0  0  0  0  0  0  0  0  0  0  0
   13.5015    4.8687   13.0809 C   0  0  0  0  0  0  0  0  0  0  0  0
   12.9784    6.8420   14.1620 N   0  0  0  0  0  0  0  0  0  0  0  0
   13.9492    6.0738   13.5332 C   0  0  0  0  0  0  0  0  0  0  0  0
   14.7411    7.4843   10.8411 O   0  0  0  0  0  0  0  0  0  0  0  0
   14.9789    8.2985   11.7283 C   0  0  0  0  0  0  0  0  0  0  0  0
   14.7469    9.7583   11.5319 C   0  0  0  0  0  0  0  0  0  0  0  0
   14.3304   10.7525   12.4046 C   0  0  0  0  0  0  0  0  0  0  0  0
   14.0955   11.8599   11.6007 C   0  0  0  0  0  0  0  0  0  0  0  0
   14.3596   11.6252   10.3204 N   0  0  0  0  0  0  0  0  0  0  0  0
   14.7804   10.3299   10.2973 N   0  0  0  0  0  0  0  0  0  0  0  0
   15.1984    9.7592    9.0253 C   0  0  0  0  0  0  0  0  0  0  0  0
   15.4124    7.9349   12.9386 N   0  0  0  0  0  0  0  0  0  0  0  0
   15.3889    6.5260   13.3575 C   0  0  0  0  0  0  0  0  0  0  0  0
  1  2  2  0
  1  4  1  0
  2  3  1  0
  3  5  1  0
  4  5  2  0
  5  6  1  0
  6  7  1  0
  6  9  2  0
  7  8  1  0
  8 10  2  0
  9 10  1  0
 11 12  2  0
 12 13  1  0
 12 19  1  0
 13 14  2  0
 13 17  1  0
 14 15  1  0
 15 16  2  0
 16 17  1  0
 17 18  1  0
 19 20  1  0
 20 10  1  0
M  END
>  <generation_date>  (1) 
None

>  <inchikey>  (1) 
WRQXFZOITXUYML-UHFFFAOYSA-N

>  <ref_mols>  (1) 
cx0892a,cx0281a

>  <tags>  (1) 
['merge', 'select (JA) [SeeSAR]', 'JA', 'SeeSAR']

>  <ref_pdb>  (1) 
cx0281a

>  <alias>  (1) 
CHIKVMac-DLS-JA001

>  <submitter_name>  (1) 
None

>  <HIPPO ID>  (1) 
325

>  <original ID>  (1) 
CHIKVMac-DLS-JA001

>  <method>  (1) 
None

>  <ref_url>  (1) 
None

>  <submitter_email>  (1) 
None

>  <original SMILES>  (1) 
Cn1nccc1C(=O)NCc1csc(-c2ncn[nH]2)n1

$$$$
CHIKVMac-DLS-JA002
     RDKit          3D

 22 25  0  0  0  0  0  0  0  0999 V2000
   11.1206    5.5982   14.9399 N   0  0  0  0  0  0  0  0  0  0  0  0
   12.0039    5.2052   13.9306 C   0  0  0  0  0  0  0  0  0  0  0  0
   11.4681    4.7878   12.7531 C   0  0  0  0  0  0  0  0  0  0  0  0
    9.8499    5.5237   14.6540 C   0  0  0  0  0  0  0  0  0  0  0  0
    8.7074    5.8730   15.5361 C   0  0  0  0  0  0  0  0  0  0  0  0
    6.6619    6.2162   16.1629 C   0  0  0  0  0  0  0  0  0  0  0  0
    8.7781    6.6566   16.6022 N   0  0  0  0  0  0  0  0  0  0  0  0
    7.4795    6.8976   17.0139 N   0  0  0  0  0  0  0  0  0  0  0  0
    7.4115    5.5826   15.2447 N   0  0  0  0  0  0  0  0  0  0  0  0
    9.7791    4.9350   13.0397 S   0  0  0  0  0  0  0  0  0  0  0  0
   14.8787    9.6019    9.8671 N   0  0  0  0  0  0  0  0  0  0  0  0
   14.5847   11.4426   11.3408 C   0  0  0  0  0  0  0  0  0  0  0  0
   14.5637    9.9737   11.0823 C   0  0  0  0  0  0  0  0  0  0  0  0
   14.4246    7.8258   11.4810 C   0  0  0  0  0  0  0  0  0  0  0  0
   14.0383    6.5372   13.5690 C   0  0  2  0  0  0  0  0  0  0  0  0
   15.3635    6.5431   14.2896 C   0  0  0  0  0  0  0  0  0  0  0  0
   14.8308    6.2187   15.6704 C   0  0  0  0  0  0  0  0  0  0  0  0
   14.0816    4.9394   15.3545 C   0  0  0  0  0  0  0  0  0  0  0  0
   13.5231    5.1724   13.9639 C   0  0  1  0  0  0  0  0  0  0  0  0
   14.1870    6.6702   12.1126 N   0  0  0  0  0  0  0  0  0  0  0  0
   14.2931    9.0176   12.0303 N   0  0  0  0  0  0  0  0  0  0  0  0
   14.8841    7.8982    9.8251 S   0  0  0  0  0  0  0  0  0  0  0  0
  1  2  1  0
  1  4  2  0
  2  3  2  0
  3 10  1  0
  4  5  1  0
  4 10  1  0
  5  7  2  0
  5  9  1  0
  6  8  1  0
  6  9  2  0
  7  8  1  0
 11 13  2  0
 11 22  1  0
 12 13  1  0
 13 21  1  0
 14 20  1  0
 14 21  2  0
 14 22  1  0
 15 16  1  0
 15 19  1  0
 15 20  1  6
 16 17  1  0
 17 18  1  0
 18 19  1  0
 19  2  1  1
M  END
>  <generation_date>  (2) 
None

>  <inchikey>  (2) 
SCMCRGMETQKMMQ-RKDXNWHRSA-N

>  <ref_mols>  (2) 
cx0406a,cx0281a

>  <tags>  (2) 
['merge', 'select (JA) [SeeSAR]', 'JA', 'SeeSAR']

>  <ref_pdb>  (2) 
cx0281a

>  <alias>  (2) 
CHIKVMac-DLS-JA002

>  <submitter_name>  (2) 
None

>  <HIPPO ID>  (2) 
326

>  <original ID>  (2) 
CHIKVMac-DLS-JA002

>  <method>  (2) 
None

>  <ref_url>  (2) 
None

>  <submitter_email>  (2) 
None

>  <original SMILES>  (2) 
Cc1nsc(N[C@@H]2CCC[C@H]2c2csc(-c3nc[nH]n3)n2)n1

$$$$
CHIKVMac-DLS-JA003
     RDKit          3D

 22 24  0  0  0  0  0  0  0  0999 V2000
   15.3914    7.1016   12.2692 N   0  0  0  0  0  0  0  0  0  0  0  0
   14.7334    9.6102    9.5082 C   0  0  0  0  0  0  0  0  0  0  0  0
   14.9028    9.1507   10.9116 C   0  0  0  0  0  0  0  0  0  0  0  0
   15.0621    7.6545   11.1273 C   0  0  0  0  0  0  0  0  0  0  0  0
   15.4236    5.7414   12.0252 C   0  0  0  0  0  0  0  0  0  0  0  0
   15.1208    5.5197   10.7679 N   0  0  0  0  0  0  0  0  0  0  0  0
   14.8909    6.7146   10.1962 O   0  0  0  0  0  0  0  0  0  0  0  0
   15.7429    4.7329   12.9950 N   0  0  0  0  0  0  0  0  0  0  0  0
   16.9991    4.3561   13.1684 C   0  0  0  0  0  0  0  0  0  0  0  0
   17.8872    4.8151   12.4433 O   0  0  0  0  0  0  0  0  0  0  0  0
   17.3413    3.3811   14.2351 C   0  0  0  0  0  0  0  0  0  0  0  0
   16.4543    2.4413   14.7636 C   0  0  0  0  0  0  0  0  0  0  0  0
   18.6476    3.3936   14.7014 C   0  0  0  0  0  0  0  0  0  0  0  0
   19.0262    2.4656   15.6475 C   0  0  0  0  0  0  0  0  0  0  0  0
   16.9312    1.5468   15.7359 C   0  0  0  0  0  0  0  0  0  0  0  0
   16.5024   -0.4952   17.1618 C   0  0  0  0  0  0  0  0  0  0  0  0
   16.6501   -0.1109   18.6473 C   0  0  0  0  0  0  0  0  0  0  0  0
   16.2148   -1.3498   19.3612 C   0  0  0  0  0  0  0  0  0  0  0  0
   15.5925   -2.1881   18.5664 C   0  0  0  0  0  0  0  0  0  0  0  0
   15.4946   -1.6619   17.1759 C   0  0  0  0  0  0  0  0  0  0  0  0
   18.1996    1.5495   16.1684 N   0  0  0  0  0  0  0  0  0  0  0  0
   16.0929    0.6178   16.3005 N   0  0  0  0  0  0  0  0  0  0  0  0
  1  4  2  0
  1  5  1  0
  2  3  1  0
  3  4  1  0
  4  7  1  0
  5  6  2  0
  6  7  1  0
  8  9  1  0
  9 10  2  0
  9 11  1  0
 11 12  2  0
 11 13  1  0
 12 15  1  0
 13 14  2  0
 14 21  1  0
 15 21  2  0
 15 22  1  0
 16 17  1  0
 16 20  1  0
 16 22  1  0
 17 18  1  0
 18 19  2  0
 19 20  1  0
  8  5  1  0
M  END
>  <generation_date>  (3) 
None

>  <inchikey>  (3) 
WXVLITNXXROEMR-UHFFFAOYSA-N

>  <ref_mols>  (3) 
cx0441a,cx0316a

>  <tags>  (3) 
['merge', 'select (JA) [SeeSAR]', 'JA', 'SeeSAR']

>  <ref_pdb>  (3) 
cx0300a

>  <alias>  (3) 
CHIKVMac-DLS-JA003

>  <submitter_name>  (3) 
None

>  <HIPPO ID>  (3) 
327

>  <original ID>  (3) 
CHIKVMac-DLS-JA003

>  <method>  (3) 
None

>  <ref_url>  (3) 
None

>  <submitter_email>  (3) 
None

>  <original SMILES>  (3) 
CCc1nc(NC(=O)c2ccnc(NC3CC=CC3)c2)no1

$$$$
CHIKVMac-DLS-JA004
     RDKit          3D

 14 15  0  0  0  0  0  0  0  0999 V2000
    7.2727    7.6207   17.2477 N   0  0  0  0  0  0  0  0  0  0  0  0
    6.3255    8.5241   17.3325 C   0  0  0  0  0  0  0  0  0  0  0  0
    6.3920    9.5841   17.9629 O   0  0  0  0  0  0  0  0  0  0  0  0
    5.1349    8.0780   16.5186 C   0  0  0  0  0  0  0  0  0  0  0  0
    5.3040    6.5925   16.6860 C   0  0  0  0  0  0  0  0  0  0  0  0
    6.7780    6.5628   16.3676 C   0  0  2  0  0  0  0  0  0  0  0  0
    8.6303    5.2014   15.5367 N   0  0  0  0  0  0  0  0  0  0  0  0
    7.4683    5.2065   16.4368 C   0  0  0  0  0  0  0  0  0  0  0  0
    9.7866    5.8371   15.8981 C   0  0  0  0  0  0  0  0  0  0  0  0
   10.7808    5.3221   13.9534 C   0  0  0  0  0  0  0  0  0  0  0  0
    9.6856    4.6664   13.5070 C   0  0  0  0  0  0  0  0  0  0  0  0
    8.5120    4.5638   14.3130 C   0  0  0  0  0  0  0  0  0  0  0  0
   10.8639    5.9295   15.1795 N   0  0  0  0  0  0  0  0  0  0  0  0
    7.4775    3.9737   14.0188 O   0  0  0  0  0  0  0  0  0  0  0  0
  1  2  1  0
  1  6  1  0
  2  3  2  0
  2  4  1  0
  4  5  1  0
  5  6  1  0
  7  8  1  0
  7  9  1  0
  7 12  1  0
  9 13  2  0
 10 11  2  0
 10 13  1  0
 11 12  1  0
 12 14  2  0
  6  8  1  1
M  END
>  <generation_date>  (4) 
None

>  <inchikey>  (4) 
LWEMDYODZODBHC-SSDOTTSWSA-N

>  <ref_mols>  (4) 
cx0314a,cx1114a

>  <tags>  (4) 
['merge', 'select (JA) [SeeSAR]', 'JA', 'SeeSAR']

>  <ref_pdb>  (4) 
cx0300a

>  <alias>  (4) 
CHIKVMac-DLS-JA004

>  <submitter_name>  (4) 
None

>  <HIPPO ID>  (4) 
328

>  <original ID>  (4) 
CHIKVMac-DLS-JA004

>  <method>  (4) 
None

>  <ref_url>  (4) 
None

>  <submitter_email>  (4) 
None

>  <original SMILES>  (4) 
O=C1CC[C@H](Cn2cnccc2=O)N1

$$$$
CHIKVMac-DLS-JA005
     RDKit          3D

 15 16  0  0  0  0  0  0  0  0999 V2000
    8.6114    5.1281   15.0590 N   0  0  0  0  0  0  0  0  0  0  0  0
    7.2121    5.0341   15.4993 C   0  0  0  0  0  0  0  0  0  0  0  0
    9.5439    5.7463   15.8461 C   0  0  0  0  0  0  0  0  0  0  0  0
   11.1675    5.4232   14.3313 C   0  0  0  0  0  0  0  0  0  0  0  0
   10.3225    4.7943   13.4834 C   0  0  0  0  0  0  0  0  0  0  0  0
    8.9500    4.6007   13.8229 C   0  0  0  0  0  0  0  0  0  0  0  0
   10.7966    5.9192   15.5545 N   0  0  0  0  0  0  0  0  0  0  0  0
    8.1065    4.0235   13.1436 O   0  0  0  0  0  0  0  0  0  0  0  0
    4.9200    7.7757   16.3333 C   0  0  0  0  0  0  0  0  0  0  0  0
    6.5895    9.2232   17.8415 O   0  0  0  0  0  0  0  0  0  0  0  0
    5.2286    6.3367   15.9922 C   0  0  0  0  0  0  0  0  0  0  0  0
    6.7369    6.3970   15.9697 C   0  0  1  0  0  0  0  0  0  0  0  0
    7.0444    6.5834   17.4372 C   0  0  0  0  0  0  0  0  0  0  0  0
    5.1897    7.6887   19.0295 O   0  0  0  0  0  0  0  0  0  0  0  0
    5.9265    7.9452   17.8191 S   0  0  0  0  0  0  0  0  0  0  0  0
  1  2  1  0
  1  3  1  0
  1  6  1  0
  3  7  2  0
  4  5  2  0
  4  7  1  0
  5  6  1  0
  6  8  2  0
  9 11  1  0
  9 15  1  0
 10 15  2  0
 11 12  1  0
 12 13  1  0
 13 15  1  0
 14 15  2  0
 12  2  1  1
M  END
>  <generation_date>  (5) 
None

>  <inchikey>  (5) 
UGYMLSSIEIESGU-MRVPVSSYSA-N

>  <ref_mols>  (5) 
cx0314a,cx1182a

>  <tags>  (5) 
['merge', 'select (JA) [SeeSAR]', 'JA', 'SeeSAR']

>  <ref_pdb>  (5) 
cx0300a

>  <alias>  (5) 
CHIKVMac-DLS-JA005

>  <submitter_name>  (5) 
None

>  <HIPPO ID>  (5) 
329

>  <original ID>  (5) 
CHIKVMac-DLS-JA005

>  <method>  (5) 
None

>  <ref_url>  (5) 
None

>  <submitter_email>  (5) 
None

>  <original SMILES>  (5) 
O=c1ccncn1C[C@H]1CCS(=O)(=O)C1

$$$$
CHIKVMac-DLS-JA006
     RDKit          3D

 16 18  0  0  0  0  0  0  0  0999 V2000
   10.7183    6.3111   15.0621 N   0  0  0  0  0  0  0  0  0  0  0  0
   11.7191    5.6737   14.3778 C   0  0  0  0  0  0  0  0  0  0  0  0
   11.3873    4.4993   13.7979 C   0  0  0  0  0  0  0  0  0  0  0  0
    8.2850    6.5325   16.9061 N   0  0  0  0  0  0  0  0  0  0  0  0
    9.5971    5.5939   15.0023 C   0  0  0  0  0  0  0  0  0  0  0  0
    6.9845    6.7919   17.2084 N   0  0  0  0  0  0  0  0  0  0  0  0
    8.3605    6.0171   15.7071 C   0  0  0  0  0  0  0  0  0  0  0  0
    7.0728    5.9584   15.2096 N   0  0  0  0  0  0  0  0  0  0  0  0
    6.2490    6.4389   16.1180 C   0  0  0  0  0  0  0  0  0  0  0  0
    9.7417    4.1152   14.1221 S   0  0  0  0  0  0  0  0  0  0  0  0
    4.5819    8.2358   16.3866 C   0  0  0  0  0  0  0  0  0  0  0  0
    4.6328    9.3537   18.8303 O   0  0  0  0  0  0  0  0  0  0  0  0
    4.7862    6.7310   16.4071 C   0  0  0  0  0  0  0  0  0  0  0  0
    6.3484    7.3364   18.4064 C   0  0  0  0  0  0  0  0  0  0  0  0
    6.4723    9.8189   17.4130 O   0  0  0  0  0  0  0  0  0  0  0  0
    5.5121    8.8257   17.8195 S   0  0  0  0  0  0  0  0  0  0  0  0
  1  2  1  0
  1  5  2  0
  2  3  2  0
  3 10  1  0
  4  6  1  0
  4  7  2  0
  5  7  1  0
  5 10  1  0
  6  9  1  0
  7  8  1  0
  8  9  2  0
 11 13  1  0
 11 16  1  0
 12 16  2  0
 14 16  1  0
 15 16  2  0
 14  6  1  0
 13  9  1  0
M  END
>  <generation_date>  (6) 
None

>  <inchikey>  (6) 
KEEJZOXJZSAFNX-UHFFFAOYSA-N

>  <ref_mols>  (6) 
cx1182a,cx0281a

>  <tags>  (6) 
['merge', 'select (JA) [SeeSAR]', 'JA', 'SeeSAR']

>  <ref_pdb>  (6) 
cx0281a

>  <alias>  (6) 
CHIKVMac-DLS-JA006

>  <submitter_name>  (6) 
None

>  <HIPPO ID>  (6) 
330

>  <original ID>  (6) 
CHIKVMac-DLS-JA006

>  <method>  (6) 
None

>  <ref_url>  (6) 
None

>  <submitter_email>  (6) 
None

>  <original SMILES>  (6) 
O=S1(=O)CCc2nc(-c3nccs3)nn2C1

$$$$
CHIKVMac-DLS-JA007
     RDKit          3D

 15 17  0  0  0  0  0  0  0  0999 V2000
   10.8918    6.8055   14.1511 N   0  0  0  0  0  0  0  0  0  0  0  0
   11.8982    6.0228   13.6444 C   0  0  0  0  0  0  0  0  0  0  0  0
   11.6445    4.6961   13.5874 C   0  0  0  0  0  0  0  0  0  0  0  0
    9.8529    6.0474   14.4903 C   0  0  0  0  0  0  0  0  0  0  0  0
    8.6390    6.6241   15.1220 C   0  0  0  0  0  0  0  0  0  0  0  0
    6.6264    6.7400   15.8440 C   0  0  0  0  0  0  0  0  0  0  0  0
    8.5647    7.8002   15.6224 N   0  0  0  0  0  0  0  0  0  0  0  0
    7.3073    8.0105   16.1198 C   0  0  0  0  0  0  0  0  0  0  0  0
    7.4538    5.9622   15.2541 N   0  0  0  0  0  0  0  0  0  0  0  0
   10.0797    4.3583   14.2157 S   0  0  0  0  0  0  0  0  0  0  0  0
    5.3812    8.9079   17.1357 C   0  0  0  0  0  0  0  0  0  0  0  0
    4.7972    9.8373   17.7018 O   0  0  0  0  0  0  0  0  0  0  0  0
    4.6155    7.6581   16.8952 C   0  0  0  0  0  0  0  0  0  0  0  0
    5.2103    6.6307   16.2834 C   0  0  0  0  0  0  0  0  0  0  0  0
    6.6915    8.9764   16.7181 N   0  0  0  0  0  0  0  0  0  0  0  0
  1  2  1  0
  1  4  2  0
  2  3  2  0
  3 10  1  0
  4  5  1  0
  4 10  1  0
  5  7  2  0
  5  9  1  0
  6  8  1  0
  6  9  2  0
  7  8  1  0
 11 12  2  0
 11 13  1  0
 11 15  1  0
 13 14  2  0
 15  8  2  0
 14  6  1  0
M  END
>  <generation_date>  (7) 
None

>  <inchikey>  (7) 
XFIKRGMSJGTWNE-UHFFFAOYSA-N

>  <ref_mols>  (7) 
cx1135b,cx0281a

>  <tags>  (7) 
['merge', 'select (JA) [SeeSAR]', 'JA', 'SeeSAR']

>  <ref_pdb>  (7) 
cx0281a

>  <alias>  (7) 
CHIKVMac-DLS-JA007

>  <submitter_name>  (7) 
None

>  <HIPPO ID>  (7) 
331

>  <original ID>  (7) 
CHIKVMac-DLS-JA007

>  <method>  (7) 
None

>  <ref_url>  (7) 
None

>  <submitter_email>  (7) 
None

>  <original SMILES>  (7) 
O=C1C=CC2=NC(c3nccs3)=NC2=N1

$$$$
CHIKVMac-DLS-JA008
     RDKit          3D

 23 25  0  0  0  0  0  0  0  0999 V2000
   15.0511    5.9758   13.0967 C   0  0  0  0  0  0  0  0  0  0  0  0
   13.5751    5.6904   12.8719 C   0  0  0  0  0  0  0  0  0  0  0  0
   12.7180    6.0190   11.8015 C   0  0  0  0  0  0  0  0  0  0  0  0
   11.3716    5.5490   12.0502 C   0  0  0  0  0  0  0  0  0  0  0  0
   11.2450    4.9127   13.2335 C   0  0  0  0  0  0  0  0  0  0  0  0
   12.7204    4.8517   14.0828 S   0  0  0  0  0  0  0  0  0  0  0  0
   15.2804    8.1869   14.2743 C   0  0  0  0  0  0  0  0  0  0  0  0
   15.4850    9.5075    9.2736 O   0  0  0  0  0  0  0  0  0  0  0  0
   15.2853    7.4776   13.0776 C   0  0  0  0  0  0  0  0  0  0  0  0
   20.9176   11.3754   10.8688 C   0  0  0  0  0  0  0  0  0  0  0  0
   15.5020    8.1276   11.8674 C   0  0  0  0  0  0  0  0  0  0  0  0
   15.7163    9.5024   11.8613 C   0  0  0  0  0  0  0  0  0  0  0  0
   15.7150   10.2281   13.0483 C   0  0  0  0  0  0  0  0  0  0  0  0
   15.4956    9.5609   14.2492 C   0  0  0  0  0  0  0  0  0  0  0  0
   18.6418   11.0408   10.7503 C   0  0  0  0  0  0  0  0  0  0  0  0
   18.4160   12.0336   11.7185 C   0  0  0  0  0  0  0  0  0  0  0  0
   19.5157   12.6955   12.2397 C   0  0  0  0  0  0  0  0  0  0  0  0
   20.7858   12.3724   11.8079 C   0  0  0  0  0  0  0  0  0  0  0  0
   17.6138   10.3594   10.0601 N   0  0  0  0  0  0  0  0  0  0  0  0
   19.8781   10.7058   10.3414 N   0  0  0  0  0  0  0  0  0  0  0  0
   15.5071   11.6805   10.4496 O   0  0  0  0  0  0  0  0  0  0  0  0
   15.9943   10.3399   10.3206 S   0  0  0  0  0  0  0  0  0  0  0  0
   15.5059    7.4208   10.6763 O   0  0  0  0  0  0  0  0  0  0  0  0
  1  2  1  0
  2  3  2  0
  2  6  1  0
  3  4  1  0
  4  5  2  0
  5  6  1  0
  7  9  2  0
  7 14  1  0
  8 22  2  0
  9 11  1  0
 10 18  2  0
 10 20  1  0
 11 12  2  0
 12 13  1  0
 12 22  1  0
 13 14  2  0
 15 16  1  0
 15 19  1  0
 15 20  2  0
 16 17  2  0
 17 18  1  0
 19 22  1  0
 21 22  2  0
 11 23  1  0
  1  9  1  0
M  END
>  <generation_date>  (8) 
None

>  <inchikey>  (8) 
KRUZICJRZZZCFH-UHFFFAOYSA-N

>  <ref_mols>  (8) 
cx0289a,cx0892a

>  <tags>  (8) 
['merge', 'select (JA) [SeeSAR]', 'JA', 'SeeSAR']

>  <ref_pdb>  (8) 
cx0289a

>  <alias>  (8) 
CHIKVMac-DLS-JA008

>  <submitter_name>  (8) 
None

>  <HIPPO ID>  (8) 
332

>  <original ID>  (8) 
CHIKVMac-DLS-JA008

>  <method>  (8) 
None

>  <ref_url>  (8) 
None

>  <submitter_email>  (8) 
None

>  <original SMILES>  (8) 
O=S(=O)(Nc1ccccn1)c1cccc(Cc2cccs2)c1O

$$$$
CHIKVMac-DLS-JA009
     RDKit          3D

 19 20  0  0  0  0  0  0  0  0999 V2000
   16.4883    7.8463   11.7718 O   0  0  0  0  0  0  0  0  0  0  0  0
   15.3200    9.4928   12.7808 N   0  0  0  0  0  0  0  0  0  0  0  0
   16.0234    8.9892   11.7185 C   0  0  0  0  0  0  0  0  0  0  0  0
   15.0336    8.6400   13.9434 C   0  0  0  0  0  0  0  0  0  0  0  0
   13.9502    7.6408   13.6653 C   0  0  0  0  0  0  0  0  0  0  0  0
   13.9134    6.5268   12.8017 C   0  0  0  0  0  0  0  0  0  0  0  0
   12.6251    5.8687   12.8562 C   0  0  0  0  0  0  0  0  0  0  0  0
   11.7644    6.4634   13.7088 C   0  0  0  0  0  0  0  0  0  0  0  0
   12.4607    7.8182   14.4718 S   0  0  0  0  0  0  0  0  0  0  0  0
   15.9847    9.1716    9.1204 O   0  0  0  0  0  0  0  0  0  0  0  0
   19.9156   13.0433   11.5607 C   0  0  0  0  0  0  0  0  0  0  0  0
   18.2426   11.5187   11.1341 C   0  0  0  0  0  0  0  0  0  0  0  0
   17.4556   12.0485   12.1703 C   0  0  0  0  0  0  0  0  0  0  0  0
   17.9617   13.1195   12.8888 C   0  0  0  0  0  0  0  0  0  0  0  0
   19.2046   13.6335   12.5800 C   0  0  0  0  0  0  0  0  0  0  0  0
   17.8060   10.4829   10.2420 N   0  0  0  0  0  0  0  0  0  0  0  0
   19.4636   12.0006   10.8426 N   0  0  0  0  0  0  0  0  0  0  0  0
   15.3742   11.0943   10.3286 O   0  0  0  0  0  0  0  0  0  0  0  0
   16.2625    9.9616   10.2918 S   0  0  0  0  0  0  0  0  0  0  0  0
  1  3  2  0
  2  3  1  0
  2  4  1  0
  4  5  1  0
  5  6  2  0
  5  9  1  0
  6  7  1  0
  7  8  2  0
  8  9  1  0
 10 19  2  0
 11 15  2  0
 11 17  1  0
 12 13  1  0
 12 16  1  0
 12 17  2  0
 13 14  2  0
 14 15  1  0
 16 19  1  0
 18 19  2  0
  3 19  1  0
M  END
>  <generation_date>  (9) 
None

>  <inchikey>  (9) 
JMNYKECVGSHROL-UHFFFAOYSA-N

>  <ref_mols>  (9) 
cx0289a,cx0892a

>  <tags>  (9) 
['merge', 'select (JA) [SeeSAR]', 'JA', 'SeeSAR']

>  <ref_pdb>  (9) 
cx0289a

>  <alias>  (9) 
CHIKVMac-DLS-JA009

>  <submitter_name>  (9) 
None

>  <HIPPO ID>  (9) 
333

>  <original ID>  (9) 
CHIKVMac-DLS-JA009

>  <method>  (9) 
None

>  <ref_url>  (9) 
None

>  <submitter_email>  (9) 
None

>  <original SMILES>  (9) 
O=C(NCc1cccs1)S(=O)(=O)Nc1ccccn1

$$$$
CHIKVMac-DLS-DF001
     RDKit          3D

 22 25  0  0  0  0  0  0  0  0999 V2000
   14.4112   12.8535   11.4062 N   0  0  0  0  0  0  0  0  0  0  0  0
   14.3509   12.9072   12.7906 C   0  0  0  0  0  0  0  0  0  0  0  0
   14.4943   11.5253   11.0177 C   0  0  0  0  0  0  0  0  0  0  0  0
   14.4818   10.7436   12.1499 C   0  0  0  0  0  0  0  0  0  0  0  0
   14.3923   11.6317   13.2738 C   0  0  0  0  0  0  0  0  0  0  0  0
   14.5656   10.9457    9.8099 N   0  0  0  0  0  0  0  0  0  0  0  0
   14.6178    9.6129    9.6646 C   0  0  0  0  0  0  0  0  0  0  0  0
   14.6056    8.7562   10.7622 C   0  0  0  0  0  0  0  0  0  0  0  0
   14.5428    9.3586   12.0137 C   0  0  0  0  0  0  0  0  0  0  0  0
   18.4795    4.5874   11.9521 O   0  0  0  0  0  0  0  0  0  0  0  0
   17.7423    4.1013   12.8045 C   0  0  0  0  0  0  0  0  0  0  0  0
   18.1571    3.7613   14.1301 C   0  0  0  0  0  0  0  0  0  0  0  0
   17.3222    3.1233   14.9964 C   0  0  0  0  0  0  0  0  0  0  0  0
   16.0100    2.8136   14.6142 C   0  0  0  0  0  0  0  0  0  0  0  0
   15.5851    3.1516   13.3787 C   0  0  0  0  0  0  0  0  0  0  0  0
   16.4233    3.7605   12.4769 N   0  0  0  0  0  0  0  0  0  0  0  0
   15.9770    3.9391   11.0929 C   0  0  0  0  0  0  0  0  0  0  0  0
   15.2178    5.2039   10.7254 C   0  0  0  0  0  0  0  0  0  0  0  0
   15.5529    6.4815   11.1273 N   0  0  0  0  0  0  0  0  0  0  0  0
   14.1408    5.2531    9.9796 N   0  0  0  0  0  0  0  0  0  0  0  0
   13.7864    6.5449    9.8983 O   0  0  0  0  0  0  0  0  0  0  0  0
   14.6524    7.2751   10.6018 C   0  0  0  0  0  0  0  0  0  0  0  0
  1  2  1  0
  1  3  1  0
  2  5  2  0
  3  4  2  0
  3  6  1  0
  4  5  1  0
  4  9  1  0
  6  7  2  0
  7  8  1  0
  8  9  2  0
 10 11  2  0
 11 12  1  0
 11 16  1  0
 12 13  2  0
 13 14  1  0
 14 15  2  0
 15 16  1  0
 16 17  1  0
 17 18  1  0
 18 19  1  0
 18 20  2  0
 19 22  2  0
 20 21  1  0
 21 22  1  0
  8 22  1  0
M  END
>  <generation_date>  (10) 
None

>  <inchikey>  (10) 
LKSJOAHCUYUSRB-UHFFFAOYSA-N

>  <ref_mols>  (10) 
cx1402a,cx0316a

>  <tags>  (10) 
['merge', 'DF', 'select (DF) [SeeSAR]', 'SeeSAR']

>  <ref_pdb>  (10) 
cx1454a

>  <alias>  (10) 
CHIKVMac-DLS-DF001

>  <submitter_name>  (10) 
None

>  <HIPPO ID>  (10) 
334

>  <original ID>  (10) 
CHIKVMac-DLS-DF001

>  <method>  (10) 
None

>  <ref_url>  (10) 
None

>  <submitter_email>  (10) 
None

>  <original SMILES>  (10) 
O=c1ccccn1Cc1noc(-c2cnc3[nH]ccc3c2)n1

$$$$
CHIKVMac-DLS-DF002
     RDKit          3D

 20 22  0  0  0  0  0  0  0  0999 V2000
   18.1361    4.9965   12.1267 O   0  0  0  0  0  0  0  0  0  0  0  0
   17.4154    5.0725   13.1225 C   0  0  0  0  0  0  0  0  0  0  0  0
   17.8601    4.9716   14.3933 N   0  0  0  0  0  0  0  0  0  0  0  0
   16.7670    5.0171   15.2505 N   0  0  0  0  0  0  0  0  0  0  0  0
   15.6310    5.1481   14.5469 C   0  0  0  0  0  0  0  0  0  0  0  0
   15.9639    5.2025   13.1999 C   0  0  0  0  0  0  0  0  0  0  0  0
   15.1141    5.4057   11.9726 C   0  0  0  0  0  0  0  0  0  0  0  0
   14.6655    6.8428   11.9044 C   0  0  0  0  0  0  0  0  0  0  0  0
   13.6808    7.2003   12.5156 O   0  0  0  0  0  0  0  0  0  0  0  0
   15.3588    7.7306   11.1645 N   0  0  0  0  0  0  0  0  0  0  0  0
   15.0084    9.0394   11.1730 C   0  0  0  0  0  0  0  0  0  0  0  0
   14.8161    9.7278    9.9739 C   0  0  0  0  0  0  0  0  0  0  0  0
   14.4515   11.0211    9.8927 N   0  0  0  0  0  0  0  0  0  0  0  0
   14.2819   11.6360   11.0687 C   0  0  0  0  0  0  0  0  0  0  0  0
   13.9309   12.9469   11.2370 N   0  0  0  0  0  0  0  0  0  0  0  0
   13.8862   13.2053   12.5853 C   0  0  0  0  0  0  0  0  0  0  0  0
   14.1917   12.0863   13.2920 C   0  0  0  0  0  0  0  0  0  0  0  0
   14.4590   11.0593   12.3481 C   0  0  0  0  0  0  0  0  0  0  0  0
   14.8361    9.7134   12.3738 C   0  0  0  0  0  0  0  0  0  0  0  0
   14.2994    5.1947   15.2224 C   0  0  0  0  0  0  0  0  0  0  0  0
  1  2  2  0
  2  3  1  0
  2  6  1  0
  3  4  1  0
  4  5  1  0
  5  6  2  0
  5 20  1  0
  6  7  1  0
  7  8  1  0
  8  9  2  0
  8 10  1  0
 10 11  1  0
 11 12  2  0
 11 19  1  0
 12 13  1  0
 13 14  2  0
 14 15  1  0
 14 18  1  0
 15 16  1  0
 16 17  2  0
 17 18  1  0
 18 19  2  0
M  END
>  <generation_date>  (11) 
None

>  <inchikey>  (11) 
OHSGHNZPVAYZHL-UHFFFAOYSA-N

>  <ref_mols>  (11) 
cx0317a,cx1402a

>  <tags>  (11) 
['merge', 'DF', 'select (DF) [SeeSAR]', 'SeeSAR']

>  <ref_pdb>  (11) 
cx1454a

>  <alias>  (11) 
CHIKVMac-DLS-DF002

>  <submitter_name>  (11) 
None

>  <HIPPO ID>  (11) 
335

>  <original ID>  (11) 
CHIKVMac-DLS-DF002

>  <method>  (11) 
None

>  <ref_url>  (11) 
None

>  <submitter_email>  (11) 
None

>  <original SMILES>  (11) 
Cc1[nH][nH]c(=O)c1CC(=O)Nc1cnc2[nH]ccc2c1

$$$$
CHIKVMac-DLS-DF003
     RDKit          3D

 20 22  0  0  0  0  0  0  0  0999 V2000
   14.4527   13.0077   11.3814 N   0  0  0  0  0  0  0  0  0  0  0  0
   14.4924   11.5883   11.1740 C   0  0  0  0  0  0  0  0  0  0  0  0
   14.5900   10.7291   12.2637 C   0  0  0  0  0  0  0  0  0  0  0  0
   14.6295    9.3508   12.0797 C   0  0  0  0  0  0  0  0  0  0  0  0
   14.4386   11.0334    9.9506 N   0  0  0  0  0  0  0  0  0  0  0  0
   14.4750    9.7044    9.7528 C   0  0  0  0  0  0  0  0  0  0  0  0
   14.5725    8.7964   10.8051 C   0  0  0  0  0  0  0  0  0  0  0  0
   18.4600    4.5068   11.8197 O   0  0  0  0  0  0  0  0  0  0  0  0
   17.7198    4.0414   12.6810 C   0  0  0  0  0  0  0  0  0  0  0  0
   18.1447    3.6733   13.9959 C   0  0  0  0  0  0  0  0  0  0  0  0
   17.3013    3.0598   14.8716 C   0  0  0  0  0  0  0  0  0  0  0  0
   15.9716    2.8045   14.5106 C   0  0  0  0  0  0  0  0  0  0  0  0
   15.5380    3.1702   13.2861 C   0  0  0  0  0  0  0  0  0  0  0  0
   16.3829    3.7547   12.3745 N   0  0  0  0  0  0  0  0  0  0  0  0
   15.9194    3.9634   11.0004 C   0  0  0  0  0  0  0  0  0  0  0  0
   15.1692    5.2428   10.6667 C   0  0  0  0  0  0  0  0  0  0  0  0
   15.5072    6.5063   11.1091 N   0  0  0  0  0  0  0  0  0  0  0  0
   14.0998    5.3204    9.9120 N   0  0  0  0  0  0  0  0  0  0  0  0
   13.7532    6.6171    9.8700 O   0  0  0  0  0  0  0  0  0  0  0  0
   14.6142    7.3193   10.5999 C   0  0  0  0  0  0  0  0  0  0  0  0
  1  2  1  0
  2  3  2  0
  2  5  1  0
  3  4  1  0
  4  7  2  0
  5  6  2  0
  6  7  1  0
  8  9  2  0
  9 10  1  0
  9 14  1  0
 10 11  2  0
 11 12  1  0
 12 13  2  0
 13 14  1  0
 14 15  1  0
 15 16  1  0
 16 17  1  0
 16 18  2  0
 17 20  2  0
 18 19  1  0
 19 20  1  0
  7 20  1  0
M  END
>  <generation_date>  (12) 
None

>  <inchikey>  (12) 
PKGKYFTZAWPUOV-UHFFFAOYSA-N

>  <ref_mols>  (12) 
cx1406a,cx0316a

>  <tags>  (12) 
['merge', 'DF', 'select (DF) [SeeSAR]', 'SeeSAR']

>  <ref_pdb>  (12) 
cx1454a

>  <alias>  (12) 
CHIKVMac-DLS-DF003

>  <submitter_name>  (12) 
None

>  <HIPPO ID>  (12) 
336

>  <original ID>  (12) 
CHIKVMac-DLS-DF003

>  <method>  (12) 
None

>  <ref_url>  (12) 
None

>  <submitter_email>  (12) 
None

>  <original SMILES>  (12) 
Nc1ccc(-c2nc(Cn3ccccc3=O)no2)cn1

$$$$
CHIKVMac-DLS-DF004
     RDKit          3D

 24 26  0  0  0  0  0  0  0  0999 V2000
   15.3160    8.6899   10.9440 C   0  0  0  0  0  0  0  0  0  0  0  0
   14.8741    9.4309   12.1955 C   0  0  0  0  0  0  0  0  0  0  0  0
   14.3952   10.7775   12.2344 C   0  0  0  0  0  0  0  0  0  0  0  0
   14.1492   11.7501   11.1354 C   0  0  0  0  0  0  0  0  0  0  0  0
   14.0833   13.0351   11.4642 N   0  0  0  0  0  0  0  0  0  0  0  0
   14.0135   11.3481    9.9676 O   0  0  0  0  0  0  0  0  0  0  0  0
   14.2006   11.0224   13.5758 C   0  0  0  0  0  0  0  0  0  0  0  0
   14.9526    8.9105   13.3989 N   0  0  0  0  0  0  0  0  0  0  0  0
   14.5456    9.9041   14.2298 N   0  0  0  0  0  0  0  0  0  0  0  0
   14.5602    9.6814   15.6702 C   0  0  0  0  0  0  0  0  0  0  0  0
   18.2207    4.4428   11.6967 O   0  0  0  0  0  0  0  0  0  0  0  0
   17.5787    3.9621   12.6257 C   0  0  0  0  0  0  0  0  0  0  0  0
   18.0773    3.8115   13.9574 C   0  0  0  0  0  0  0  0  0  0  0  0
   17.3577    3.1704   14.9195 C   0  0  0  0  0  0  0  0  0  0  0  0
   16.0813    2.6691   14.6307 C   0  0  0  0  0  0  0  0  0  0  0  0
   15.5759    2.8258   13.3893 C   0  0  0  0  0  0  0  0  0  0  0  0
   16.3012    3.4347   12.3945 N   0  0  0  0  0  0  0  0  0  0  0  0
   15.7893    3.4163   11.0218 C   0  0  0  0  0  0  0  0  0  0  0  0
   14.9329    4.5481   10.5581 C   0  0  0  0  0  0  0  0  0  0  0  0
   15.2863    5.8442   10.8192 N   0  0  0  0  0  0  0  0  0  0  0  0
   13.8197    4.4083    9.9039 N   0  0  0  0  0  0  0  0  0  0  0  0
   13.3835    5.7398    9.7227 O   0  0  0  0  0  0  0  0  0  0  0  0
   14.3158    6.5122   10.2976 C   0  0  0  0  0  0  0  0  0  0  0  0
   14.1131    8.0186   10.3015 C   0  0  0  0  0  0  0  0  0  0  0  0
  1  2  1  0
  2  3  1  0
  2  8  2  0
  3  4  1  0
  3  7  2  0
  4  5  1  0
  4  6  2  0
  7  9  1  0
  8  9  1  0
  9 10  1  0
 11 12  2  0
 12 13  1  0
 12 17  1  0
 13 14  2  0
 14 15  1  0
 15 16  2  0
 16 17  1  0
 17 18  1  0
 18 19  1  0
 19 20  1  0
 19 21  2  0
 20 23  2  0
 21 22  1  0
 22 23  1  0
 23 24  1  0
  1 24  1  0
M  END
>  <generation_date>  (13) 
None

>  <inchikey>  (13) 
UOYWXIITSWPSHI-UHFFFAOYSA-N

>  <ref_mols>  (13) 
cx0394a,cx0316a

>  <tags>  (13) 
['merge', 'DF', 'select (DF) [SeeSAR]', 'SeeSAR']

>  <ref_pdb>  (13) 
cx1454a

>  <alias>  (13) 
CHIKVMac-DLS-DF004

>  <submitter_name>  (13) 
None

>  <HIPPO ID>  (13) 
337

>  <original ID>  (13) 
CHIKVMac-DLS-DF004

>  <method>  (13) 
None

>  <ref_url>  (13) 
None

>  <submitter_email>  (13) 
None

>  <original SMILES>  (13) 
Cn1cc(C(N)=O)c(CCc2nc(Cn3ccccc3=O)no2)n1

$$$$
CHIKVMac-DLS-DF005
     RDKit          3D

 18 20  0  0  0  0  0  0  0  0999 V2000
   14.1119   13.3931   11.7446 N   0  0  0  0  0  0  0  0  0  0  0  0
   14.3151   11.9986   11.4741 C   0  0  0  0  0  0  0  0  0  0  0  0
   14.3668   11.4405   10.2865 N   0  0  0  0  0  0  0  0  0  0  0  0
   14.5770   10.0811   10.4492 C   0  0  0  0  0  0  0  0  0  0  0  0
   14.6519    9.8145   11.7973 C   0  0  0  0  0  0  0  0  0  0  0  0
   14.4877   11.0279   12.4376 N   0  0  0  0  0  0  0  0  0  0  0  0
   14.4889   11.2766   13.8864 C   0  0  0  0  0  0  0  0  0  0  0  0
   14.8589    8.5160   12.2570 C   0  0  0  0  0  0  0  0  0  0  0  0
   14.9868    7.4937   11.3256 C   0  0  0  0  0  0  0  0  0  0  0  0
   14.9115    7.7575    9.9623 C   0  0  0  0  0  0  0  0  0  0  0  0
   14.7048    9.0586    9.5154 C   0  0  0  0  0  0  0  0  0  0  0  0
   14.9466    8.1758   13.6492 N   0  0  0  0  0  0  0  0  0  0  0  0
   14.6035    6.8184   14.0971 C   0  0  0  0  0  0  0  0  0  0  0  0
   13.1267    6.5595   14.0516 C   0  0  0  0  0  0  0  0  0  0  0  0
   12.0712    7.8302   14.4646 S   0  0  0  0  0  0  0  0  0  0  0  0
   10.6711    6.9003   14.1843 C   0  0  0  0  0  0  0  0  0  0  0  0
   10.9720    5.6474   13.7882 C   0  0  0  0  0  0  0  0  0  0  0  0
   12.3968    5.4066   13.6989 C   0  0  0  0  0  0  0  0  0  0  0  0
  1  2  1  0
  2  3  2  0
  2  6  1  0
  3  4  1  0
  4  5  2  0
  4 11  1  0
  5  6  1  0
  5  8  1  0
  6  7  1  0
  8  9  2  0
  9 10  1  0
 10 11  2  0
 12 13  1  0
 13 14  1  0
 14 15  1  0
 14 18  2  0
 15 16  1  0
 16 17  2  0
 17 18  1  0
  8 12  1  0
M  END
>  <generation_date>  (14) 
None

>  <inchikey>  (14) 
DGASNXVGKHJXGC-UHFFFAOYSA-N

>  <ref_mols>  (14) 
cx0892a,cx1203a

>  <tags>  (14) 
['merge', 'DF', 'select (DF) [SeeSAR]', 'SeeSAR']

>  <ref_pdb>  (14) 
cx1454a

>  <alias>  (14) 
CHIKVMac-DLS-DF005

>  <submitter_name>  (14) 
None

>  <HIPPO ID>  (14) 
338

>  <original ID>  (14) 
CHIKVMac-DLS-DF005

>  <method>  (14) 
None

>  <ref_url>  (14) 
None

>  <submitter_email>  (14) 
None

>  <original SMILES>  (14) 
Cn1c(N)nc2cccc(NCc3cccs3)c21

$$$$
cx0892a-cx1203a
     RDKit          3D

 18 20  0  0  0  0  0  0  0  0999 V2000
   14.5000    6.4369   13.7671 C   0  0  0  0  0  0  0  0  0  0  0  0
   14.9344    7.8077   13.5036 N   0  0  0  0  0  0  0  0  0  0  0  0
   15.0401   10.8717   14.6105 C   0  0  0  0  0  0  0  0  0  0  0  0
   14.3064   13.2945   12.8659 N   0  0  0  0  0  0  0  0  0  0  0  0
   14.7613   10.5227   10.9590 N   0  0  0  0  0  0  0  0  0  0  0  0
   14.8547    9.9073   12.2188 C   0  0  0  0  0  0  0  0  0  0  0  0
   14.8743   10.9405   13.1442 C   0  0  0  0  0  0  0  0  0  0  0  0
   14.6158   12.0870   12.3676 C   0  0  0  0  0  0  0  0  0  0  0  0
   14.6129   11.8554   11.0703 N   0  0  0  0  0  0  0  0  0  0  0  0
   12.3591    5.4460   12.6783 C   0  0  0  0  0  0  0  0  0  0  0  0
   13.0231    6.2013   13.6261 C   0  0  0  0  0  0  0  0  0  0  0  0
   11.9271    6.9407   14.7192 S   0  0  0  0  0  0  0  0  0  0  0  0
   10.5740    6.2889   13.9018 C   0  0  0  0  0  0  0  0  0  0  0  0
   10.9442    5.5043   12.8337 C   0  0  0  0  0  0  0  0  0  0  0  0
   14.6450    9.8008    9.7804 C   0  0  0  0  0  0  0  0  0  0  0  0
   14.5560    8.4710    9.8330 C   0  0  0  0  0  0  0  0  0  0  0  0
   14.7203    7.7950   11.0991 C   0  0  0  0  0  0  0  0  0  0  0  0
   14.8457    8.4552   12.2765 C   0  0  0  0  0  0  0  0  0  0  0  0
  2  1  1  0
  5  6  1  0
  5  9  1  0
  6  7  2  0
  7  8  1  0
  8  9  2  0
 10 11  2  0
 10 14  1  0
 11  1  1  0
 11 12  1  0
 12 13  1  0
 13 14  2  0
 15 16  2  0
 16 17  1  0
 17 18  2  0
  5 15  1  0
  6 18  1  0
 18  2  1  0
  3  7  1  0
  4  8  1  0
M  END
>  <generation_date>  (15) 
None

>  <inchikey>  (15) 
DIXNXVWQGJPPGN-UHFFFAOYSA-N

>  <ref_mols>  (15) 
cx0892a,cx1203a

>  <tags>  (15) 
['select (DF) [frag_pair_pure]', 'fragmenstein', 'raw', 'select (JA) [frag_pair_pure]']

>  <ref_pdb>  (15) 
cx0300a

>  <alias>  (15) 
cx0892a-cx1203a

>  <submitter_name>  (15) 
None

>  <HIPPO ID>  (15) 
339

>  <original ID>  (15) 
cx0892a-cx1203a

>  <method>  (15) 
None

>  <ref_url>  (15) 
None

>  <submitter_email>  (15) 
None

>  <original SMILES>  (15) 
Cc1c(N)nn2cccc(NCc3cccs3)c12

$$$$
cx0317a-cx1402a
     RDKit          3D

 21 23  0  0  0  0  0  0  0  0999 V2000
   14.5997    4.2462   14.5447 C   0  0  0  0  0  0  0  0  0  0  0  0
   18.4148    3.9995   11.7198 O   0  0  0  0  0  0  0  0  0  0  0  0
   15.6422    5.1225   11.5529 C   0  0  2  0  0  0  0  0  0  0  0  0
   14.3847    4.3686   11.0502 C   0  0  0  0  0  0  0  0  0  0  0  0
   14.0027    4.8255    9.7500 O   0  0  0  0  0  0  0  0  0  0  0  0
   16.8799    3.3436   14.5793 N   0  0  0  0  0  0  0  0  0  0  0  0
   15.9114    4.0213   13.8944 C   0  0  0  0  0  0  0  0  0  0  0  0
   16.2897    4.4148   12.6816 C   0  0  0  0  0  0  0  0  0  0  0  0
   17.6506    3.8842   12.6612 C   0  0  0  0  0  0  0  0  0  0  0  0
   17.9073    3.2602   13.8636 N   0  0  0  0  0  0  0  0  0  0  0  0
   14.7747   11.0123   10.3539 N   0  0  0  0  0  0  0  0  0  0  0  0
   14.6706   11.5467   11.6142 C   0  0  0  0  0  0  0  0  0  0  0  0
   14.7683   10.6443   12.8003 C   0  0  0  0  0  0  0  0  0  0  0  0
   14.8561    9.3209   12.6066 C   0  0  0  0  0  0  0  0  0  0  0  0
   14.8074    8.7681   11.2337 C   0  0  0  0  0  0  0  0  0  0  0  0
   14.8015    9.6352   10.1855 C   0  0  0  0  0  0  0  0  0  0  0  0
   14.4544   12.7264   13.3842 C   0  0  0  0  0  0  0  0  0  0  0  0
   14.6558   11.5108   13.9191 C   0  0  0  0  0  0  0  0  0  0  0  0
   14.4604   12.7840   11.9940 N   0  0  0  0  0  0  0  0  0  0  0  0
   15.4329    6.4981   11.9634 O   0  0  0  0  0  0  0  0  0  0  0  0
   14.6391    7.2738   11.0555 C   0  0  0  0  0  0  0  0  0  0  0  0
  3  4  1  1
  5  4  1  0
  6  7  1  0
  6 10  2  0
  7  1  1  0
  7  8  2  0
  8  9  1  0
  8  3  1  0
  9  2  2  0
  9 10  1  0
 11 16  1  0
 11 12  1  0
 12 13  1  0
 12 19  2  0
 13 18  1  0
 13 14  2  0
 14 15  1  0
 15 16  2  0
 17 18  2  0
 17 19  1  0
 20  3  1  0
 21 20  1  0
 21 15  1  0
M  END
>  <generation_date>  (16) 
None

>  <inchikey>  (16) 
ZJILPZZKKJHMJM-LLVKDONJSA-N

>  <ref_mols>  (16) 
cx0317a,cx1402a

>  <tags>  (16) 
['select (DF) [frag_pair_pure]', 'fragmenstein', 'raw']

>  <ref_pdb>  (16) 
cx0300a

>  <alias>  (16) 
cx0317a-cx1402a

>  <submitter_name>  (16) 
None

>  <HIPPO ID>  (16) 
341

>  <original ID>  (16) 
cx0317a-cx1402a

>  <method>  (16) 
None

>  <ref_url>  (16) 
None

>  <submitter_email>  (16) 
None

>  <original SMILES>  (16) 
CC1=C([C@@H](CO)OCc2c[nH]c3nccc-3c2)C(=O)N=N1

$$$$
cx0281a-cx0406a
     RDKit          3D

 21 24  0  0  0  0  0  0  0  0999 V2000
   14.5703   12.1492   11.7698 C   0  0  0  0  0  0  0  0  0  0  0  0
   14.3487    7.3647   11.5495 N   0  0  0  0  0  0  0  0  0  0  0  0
   11.6616    7.1540   13.6757 N   0  0  0  0  0  0  0  0  0  0  0  0
   12.8203    6.2842   13.3566 C   0  0  1  0  0  0  0  0  0  0  0  0
   12.3291    5.2935   12.2845 C   0  0  0  0  0  0  0  0  0  0  0  0
   10.7121    4.7993   12.9162 S   0  0  0  0  0  0  0  0  0  0  0  0
   10.3637    6.4808   13.4305 C   0  0  1  0  0  0  0  0  0  0  0  0
    7.6504    6.3402   15.7491 C   0  0  0  0  0  0  0  0  0  0  0  0
    8.5148    7.1690   16.3842 N   0  0  0  0  0  0  0  0  0  0  0  0
    9.6620    7.3110   15.7013 N   0  0  0  0  0  0  0  0  0  0  0  0
    9.4141    6.5713   14.6042 C   0  0  0  0  0  0  0  0  0  0  0  0
    8.1782    5.9538   14.6145 N   0  0  0  0  0  0  0  0  0  0  0  0
   14.8908   10.7039    9.8226 N   0  0  0  0  0  0  0  0  0  0  0  0
   14.7869   10.8259   11.1463 C   0  0  0  0  0  0  0  0  0  0  0  0
   14.7705    9.6771   11.9317 N   0  0  0  0  0  0  0  0  0  0  0  0
   14.6248    8.6276   11.1488 C   0  0  0  0  0  0  0  0  0  0  0  0
   14.7416    9.0840    9.4931 S   0  0  0  0  0  0  0  0  0  0  0  0
   15.2692    6.2066   13.4555 C   0  0  0  0  0  0  0  0  0  0  0  0
   14.1214    7.0829   12.9596 C   0  0  1  0  0  0  0  0  0  0  0  0
   13.2987    5.5371   14.6408 C   0  0  0  0  0  0  0  0  0  0  0  0
   14.7902    5.7915   14.8241 C   0  0  0  0  0  0  0  0  0  0  0  0
  4  3  1  0
  3  7  1  0
  4  5  1  6
  5  6  1  0
  6  7  1  0
  7 11  1  1
  8  9  1  0
  8 12  2  0
  9 10  1  0
 10 11  2  0
 11 12  1  0
 13 14  2  0
 13 17  1  0
 14  1  1  0
 14 15  1  0
 15 16  2  0
 16  2  1  0
 16 17  1  0
 18 19  1  0
 18 21  1  0
 19  2  1  6
 20 21  1  0
  4 19  1  0
  4 20  1  0
M  END
>  <generation_date>  (17) 
None

>  <inchikey>  (17) 
DMFAZENURPGKDR-QRTLGDNMSA-N

>  <ref_mols>  (17) 
cx0406a,cx0281a

>  <tags>  (17) 
['select (DF) [frag_pair_pure]', 'fragmenstein', 'raw', 'select (JA) [frag_pair_pure]']

>  <ref_pdb>  (17) 
cx0300a

>  <alias>  (17) 
cx0281a-cx0406a

>  <submitter_name>  (17) 
None

>  <HIPPO ID>  (17) 
343

>  <original ID>  (17) 
cx0281a-cx0406a

>  <method>  (17) 
None

>  <ref_url>  (17) 
None

>  <submitter_email>  (17) 
None

>  <original SMILES>  (17) 
Cc1nsc(N[C@@H]2CCC[C@]23CS[C@@H](c2nc[nH]n2)N3)n1

$$$$
cx1182a-cx0314a
     RDKit          3D

 17 18  0  0  0  0  0  0  0  0999 V2000
    9.1808    8.4256   16.7708 N   0  0  0  0  0  0  0  0  0  0  0  0
    5.9460   10.0831   17.6496 O   0  0  0  0  0  0  0  0  0  0  0  0
    8.1038    7.8422   15.9761 C   0  0  2  0  0  0  0  0  0  0  0  0
    4.4968    8.6222   19.1224 O   0  0  0  0  0  0  0  0  0  0  0  0
    5.7857    6.5994   14.9513 O   0  0  0  0  0  0  0  0  0  0  0  0
    8.5428    3.4948   14.3301 O   0  0  0  0  0  0  0  0  0  0  0  0
    4.8425    7.9837   16.6061 C   0  0  0  0  0  0  0  0  0  0  0  0
    5.7871    6.8292   16.3307 C   0  0  2  0  0  0  0  0  0  0  0  0
    7.1555    7.1073   16.9460 C   0  0  2  0  0  0  0  0  0  0  0  0
    6.8272    7.7620   18.2894 C   0  0  0  0  0  0  0  0  0  0  0  0
    5.4380    8.7928   18.0379 S   0  0  0  0  0  6  0  0  0  0  0  0
    8.3112    5.5959   15.0069 N   0  0  0  0  0  0  0  0  0  0  0  0
    8.9384    4.7696   14.1811 C   0  0  0  0  0  0  0  0  0  0  0  0
    9.9138    5.1072   13.2920 C   0  0  0  0  0  0  0  0  0  0  0  0
   10.2700    6.4263   13.3282 C   0  0  0  0  0  0  0  0  0  0  0  0
    9.7066    7.3221   14.1624 N   0  0  0  0  0  0  0  0  0  0  0  0
    8.7112    6.8764   14.9524 C   0  0  0  0  0  0  0  0  0  0  0  0
  3  1  1  1
  7  8  1  0
  7 11  1  0
  8  9  1  0
  9 10  1  1
  9  3  1  0
 10 11  1  0
 11  4  2  0
 11  2  2  0
 12 17  2  0
 12 13  1  0
 13 14  2  0
 13  6  1  0
 14 15  1  0
 15 16  2  0
 16 17  1  0
  8  5  1  6
  3 17  1  0
M  END
>  <generation_date>  (18) 
None

>  <inchikey>  (18) 
USFGAVIWCWJGDE-SHYZEUOFSA-N

>  <ref_mols>  (18) 
cx0314a,cx1182a

>  <tags>  (18) 
['fragmenstein', 'raw', 'select (HA) [frag_pair_pure]']

>  <ref_pdb>  (18) 
cx0300a

>  <alias>  (18) 
cx1182a-cx0314a

>  <submitter_name>  (18) 
None

>  <HIPPO ID>  (18) 
346

>  <original ID>  (18) 
cx1182a-cx0314a

>  <method>  (18) 
None

>  <ref_url>  (18) 
None

>  <submitter_email>  (18) 
None

>  <original SMILES>  (18) 
N[C@@H](c1nccc(O)n1)[C@H]1CS(=O)(=O)C[C@H]1O

$$$$
cx0316a-cx1406a
     RDKit          3D

 22 24  0  0  0  0  0  0  0  0999 V2000
   13.7633    8.6367    8.9195 C   0  0  0  0  0  0  0  0  0  0  0  0
   18.3620    4.7299   12.3297 O   0  0  0  0  0  0  0  0  0  0  0  0
   14.2474    8.2587   10.3211 C   0  0  1  0  0  0  0  0  0  0  0  0
   15.9236    3.7149   11.4676 C   0  0  0  0  0  0  0  0  0  0  0  0
   14.3617   12.9889   13.1596 N   0  0  0  0  0  0  0  0  0  0  0  0
   15.5261    6.2216   11.2421 N   0  0  0  0  0  0  0  0  0  0  0  0
   14.6395    6.8501   10.5038 C   0  0  0  0  0  0  0  0  0  0  0  0
   13.7662    5.9985    9.8744 O   0  0  0  0  0  0  0  0  0  0  0  0
   14.1422    4.7237   10.1908 N   0  0  0  0  0  0  0  0  0  0  0  0
   15.1741    4.9008   11.0187 C   0  0  0  0  0  0  0  0  0  0  0  0
   15.5390    3.1689   13.8324 C   0  0  0  0  0  0  0  0  0  0  0  0
   16.3286    3.7587   12.8643 N   0  0  0  0  0  0  0  0  0  0  0  0
   17.5816    4.2724   13.1557 C   0  0  0  0  0  0  0  0  0  0  0  0
   17.9914    4.2349   14.5833 C   0  0  0  0  0  0  0  0  0  0  0  0
   17.1979    3.6642   15.4964 C   0  0  0  0  0  0  0  0  0  0  0  0
   15.9360    3.0988   15.1068 C   0  0  0  0  0  0  0  0  0  0  0  0
   14.7961    9.4308   11.1135 C   0  0  0  0  0  0  0  0  0  0  0  0
   14.8237   10.6971   10.5198 C   0  0  0  0  0  0  0  0  0  0  0  0
   14.7267   11.8595   11.1901 N   0  0  0  0  0  0  0  0  0  0  0  0
   14.6546   11.7910   12.5187 C   0  0  0  0  0  0  0  0  0  0  0  0
   14.8045   10.6085   13.2239 C   0  0  0  0  0  0  0  0  0  0  0  0
   14.8685    9.4074   12.5142 C   0  0  0  0  0  0  0  0  0  0  0  0
  3  1  1  6
  6  7  2  0
  6 10  1  0
  7  3  1  0
  7  8  1  0
  8  9  1  0
  9 10  2  0
 10  4  1  0
 11 16  2  0
 11 12  1  0
 12  4  1  0
 12 13  1  0
 13 14  1  0
 13  2  2  0
 14 15  2  0
 15 16  1  0
 17 22  1  0
 17 18  2  0
 18 19  1  0
 19 20  2  0
 20 21  1  0
 20  5  1  0
 21 22  2  0
  3 17  1  0
M  END
>  <generation_date>  (19) 
None

>  <inchikey>  (19) 
DEYCAJGWGSVJCX-SNVBAGLBSA-N

>  <ref_mols>  (19) 
cx1406a,cx0316a

>  <tags>  (19) 
['select (DF) [frag_pair_pure]', 'fragmenstein', 'raw', 'select (JA) [frag_pair_pure]']

>  <ref_pdb>  (19) 
cx0300a

>  <alias>  (19) 
cx0316a-cx1406a

>  <submitter_name>  (19) 
None

>  <HIPPO ID>  (19) 
347

>  <original ID>  (19) 
cx0316a-cx1406a

>  <method>  (19) 
None

>  <ref_url>  (19) 
None

>  <submitter_email>  (19) 
None

>  <original SMILES>  (19) 
C[C@H](c1ccc(N)nc1)c1nc(Cn2ccccc2=O)no1

$$$$
cx0281a-cx1182a
     RDKit          3D

 16 18  0  0  0  0  0  0  0  0999 V2000
    5.9630    9.8779   17.7479 O   0  0  0  0  0  0  0  0  0  0  0  0
    4.8846    8.0213   19.0506 O   0  0  0  0  0  0  0  0  0  0  0  0
   11.4274    6.7582   14.1711 N   0  0  0  0  0  0  0  0  0  0  0  0
   11.9462    6.1906   13.0277 C   0  0  0  0  0  0  0  0  0  0  0  0
   11.1156    5.3131   12.3744 C   0  0  0  0  0  0  0  0  0  0  0  0
    9.6491    5.1479   13.2426 S   0  0  0  0  0  0  0  0  0  0  0  0
   10.1991    6.3137   14.3897 C   0  0  0  0  0  0  0  0  0  0  0  0
    7.1541    7.1624   16.1906 C   0  0  2  0  0  0  0  0  0  0  0  0
    7.6150    8.3000   15.4218 N   0  0  0  0  0  0  0  0  0  0  0  0
    9.0478    8.1934   15.5361 N   0  0  0  0  0  0  0  0  0  0  0  0
    9.3702    6.7697   15.5813 C   0  0  1  0  0  0  0  0  0  0  0  0
    8.0738    6.1056   15.7925 N   0  0  0  0  0  0  0  0  0  0  0  0
    4.8287    7.9013   16.4301 C   0  0  0  0  0  0  0  0  0  0  0  0
    5.7121    6.7714   15.8927 C   0  0  0  0  0  0  0  0  0  0  0  0
    7.1021    7.5125   17.6871 C   0  0  0  0  0  0  0  0  0  0  0  0
    5.6315    8.4811   17.8992 S   0  0  0  0  0  6  0  0  0  0  0  0
  3  4  1  0
  3  7  2  0
  4  5  2  0
  5  6  1  0
  6  7  1  0
 11  7  1  6
  8  9  1  0
  8 12  1  0
  9 10  1  0
 10 11  1  0
 11 12  1  0
 13 14  1  0
 13 16  1  0
 15 16  1  0
 16  2  2  0
 16  1  2  0
  8 14  1  6
  8 15  1  0
M  END
>  <generation_date>  (20) 
None

>  <inchikey>  (20) 
FBHJHWAHVCAMAH-HTRCEHHLSA-N

>  <ref_mols>  (20) 
cx1182a,cx0281a

>  <tags>  (20) 
['select (DF) [frag_pair_pure]', 'fragmenstein', 'raw']

>  <ref_pdb>  (20) 
cx0300a

>  <alias>  (20) 
cx0281a-cx1182a

>  <submitter_name>  (20) 
None

>  <HIPPO ID>  (20) 
349

>  <original ID>  (20) 
cx0281a-cx1182a

>  <method>  (20) 
None

>  <ref_url>  (20) 
None

>  <submitter_email>  (20) 
None

>  <original SMILES>  (20) 
O=S1(=O)CC[C@]2(C1)NN[C@H](c1nccs1)N2

$$$$
cx0892a-cx0281a
     RDKit          3D

 19 21  0  0  0  0  0  0  0  0999 V2000
   14.9175    9.5552    9.4249 C   0  0  0  0  0  0  0  0  0  0  0  0
   15.0587    7.3702   11.2624 O   0  0  0  0  0  0  0  0  0  0  0  0
   14.8062    8.1761   12.1544 C   0  0  0  0  0  0  0  0  0  0  0  0
   14.2590    6.3816   13.7878 C   0  0  0  0  0  0  0  0  0  0  0  0
   14.4800    7.7730   13.4281 N   0  0  0  0  0  0  0  0  0  0  0  0
   14.8464   10.2115   10.7097 N   0  0  0  0  0  0  0  0  0  0  0  0
   14.8118    9.6128   11.9522 C   0  0  0  0  0  0  0  0  0  0  0  0
   14.7403   10.6723   12.8467 C   0  0  0  0  0  0  0  0  0  0  0  0
   14.6439   11.8263   12.0532 C   0  0  0  0  0  0  0  0  0  0  0  0
   14.7262   11.5500   10.7557 N   0  0  0  0  0  0  0  0  0  0  0  0
   12.0185    5.8437   12.5997 C   0  0  0  0  0  0  0  0  0  0  0  0
   12.7776    5.9710   13.9150 C   0  0  2  0  0  0  0  0  0  0  0  0
   11.7976    7.1162   14.9275 S   0  0  0  0  0  0  0  0  0  0  0  0
   10.2107    6.6010   14.2270 C   0  0  2  0  0  0  0  0  0  0  0  0
   10.5472    6.2514   12.7689 C   0  0  0  0  0  0  0  0  0  0  0  0
    8.8663    6.0732   16.0095 C   0  0  0  0  0  0  0  0  0  0  0  0
    8.3061    7.2810   15.4396 N   0  0  0  0  0  0  0  0  0  0  0  0
    9.2245    7.6631   14.3675 N   0  0  0  0  0  0  0  0  0  0  0  0
    9.6152    5.4712   14.9193 N   0  0  0  0  0  0  0  0  0  0  0  0
  3  2  2  0
  5  4  1  0
  5  3  1  0
  6  1  1  0
  6  7  1  0
  6 10  1  0
  7  8  2  0
  7  3  1  0
  8  9  1  0
  9 10  2  0
 11 12  1  0
 11 15  1  0
 12  4  1  6
 12 13  1  0
 14 13  1  0
 14 15  1  6
 16 17  1  0
 16 19  1  0
 17 18  1  0
 14 18  1  0
 14 19  1  0
M  END
>  <generation_date>  (21) 
None

>  <inchikey>  (21) 
ZNHLZZKVXUVQKY-KWQFWETISA-N

>  <ref_mols>  (21) 
cx0892a,cx0281a

>  <tags>  (21) 
['select (DF) [frag_pair_pure]', 'fragmenstein', 'raw']

>  <ref_pdb>  (21) 
cx0300a

>  <alias>  (21) 
cx0892a-cx0281a

>  <submitter_name>  (21) 
None

>  <HIPPO ID>  (21) 
351

>  <original ID>  (21) 
cx0892a-cx0281a

>  <method>  (21) 
None

>  <ref_url>  (21) 
None

>  <submitter_email>  (21) 
None

>  <original SMILES>  (21) 
Cn1nccc1C(=O)NC[C@@H]1CC[C@@]2(NCNN2)S1

$$$$
cx0316a-cx0394a
     RDKit          3D

 25 27  0  0  0  0  0  0  0  0999 V2000
   13.7531    8.7217    9.3910 C   0  0  0  0  0  0  0  0  0  0  0  0
   18.0587    4.3985   11.8587 O   0  0  0  0  0  0  0  0  0  0  0  0
   14.7030    8.2853   10.5137 C   0  0  2  0  0  0  0  0  0  0  0  0
   15.4135    3.5193   11.4193 C   0  0  0  0  0  0  0  0  0  0  0  0
   15.9536    8.3822    9.9557 F   0  0  0  0  0  0  0  0  0  0  0  0
   14.8989    9.3226   15.3124 C   0  0  0  0  0  0  0  0  0  0  0  0
   15.2708   11.1638    9.7432 O   0  0  0  0  0  0  0  0  0  0  0  0
   14.8026   11.4658   10.8322 C   0  0  0  0  0  0  0  0  0  0  0  0
   14.1657   12.6513   11.0293 N   0  0  0  0  0  0  0  0  0  0  0  0
   15.4356    5.9693   11.1472 N   0  0  0  0  0  0  0  0  0  0  0  0
   14.5107    6.8382   10.8160 C   0  0  0  0  0  0  0  0  0  0  0  0
   13.2785    6.2782   10.6447 O   0  0  0  0  0  0  0  0  0  0  0  0
   13.4359    4.9148   10.8743 N   0  0  0  0  0  0  0  0  0  0  0  0
   14.7351    4.8037   11.1720 C   0  0  0  0  0  0  0  0  0  0  0  0
   15.4420    3.0221   13.8420 C   0  0  0  0  0  0  0  0  0  0  0  0
   16.0872    3.5233   12.7276 N   0  0  0  0  0  0  0  0  0  0  0  0
   17.3781    4.0310   12.8085 C   0  0  0  0  0  0  0  0  0  0  0  0
   17.9629    4.1115   14.1748 C   0  0  0  0  0  0  0  0  0  0  0  0
   17.3056    3.6166   15.2285 C   0  0  0  0  0  0  0  0  0  0  0  0
   16.0090    3.0290   15.0522 C   0  0  0  0  0  0  0  0  0  0  0  0
   14.8281    9.5842   13.8948 N   0  0  0  0  0  0  0  0  0  0  0  0
   14.7870   10.7989   13.2852 C   0  0  0  0  0  0  0  0  0  0  0  0
   14.7817   10.5381   11.9296 C   0  0  0  0  0  0  0  0  0  0  0  0
   14.7348    9.1128   11.8111 C   0  0  0  0  0  0  0  0  0  0  0  0
   14.7669    8.5505   13.0409 N   0  0  0  0  0  0  0  0  0  0  0  0
  3  1  1  6
  3  5  1  0
  8  7  2  0
  9  8  1  0
 10 11  2  0
 10 14  1  0
 11  3  1  0
 11 12  1  0
 12 13  1  0
 13 14  2  0
 14  4  1  0
 15 20  2  0
 15 16  1  0
 16  4  1  0
 16 17  1  0
 17 18  1  0
 17  2  2  0
 18 19  2  0
 19 20  1  0
 21  6  1  0
 21 22  1  0
 21 25  1  0
 22 23  2  0
 23  8  1  0
 23 24  1  0
 24 25  2  0
  3 24  1  0
M  END
>  <generation_date>  (22) 
None

>  <inchikey>  (22) 
MDQYSLGJFFKBIH-OAHLLOKOSA-N

>  <ref_mols>  (22) 
cx0394a,cx0316a

>  <tags>  (22) 
['select (JA) [frag_pair_pure]', 'fragmenstein', 'raw']

>  <ref_pdb>  (22) 
cx0300a

>  <alias>  (22) 
cx0316a-cx0394a

>  <submitter_name>  (22) 
None

>  <HIPPO ID>  (22) 
352

>  <original ID>  (22) 
cx0316a-cx0394a

>  <method>  (22) 
None

>  <ref_url>  (22) 
None

>  <submitter_email>  (22) 
None

>  <original SMILES>  (22) 
Cn1cc(C(N)=O)c([C@@](C)(F)c2nc(Cn3ccccc3=O)no2)n1

$$$$
cx1372a-cx1305a
     RDKit          3D

 13 15  0  0  0  0  0  0  0  0999 V2000
   13.4696    8.1951    9.6501 N   0  0  0  0  0  0  0  0  0  0  0  0
   14.8773    9.4777   13.9858 N   0  0  0  0  0  0  0  0  0  0  0  0
   14.6934    9.3891   11.5580 C   0  0  0  0  0  0  0  0  0  0  0  0
   14.6887    8.4807   10.3866 C   0  0  1  0  0  0  0  0  0  0  0  0
   15.1280    7.1940   11.0871 C   0  0  0  0  0  0  0  0  0  0  0  0
   14.8099    7.3568   12.5979 C   0  0  0  0  0  0  0  0  0  0  0  0
   14.7891    8.8417   12.7723 C   0  0  0  0  0  0  0  0  0  0  0  0
   14.6591   10.8229   14.2057 C   0  0  0  0  0  0  0  0  0  0  0  0
   14.8338   10.7361   11.1398 C   0  0  0  0  0  0  0  0  0  0  0  0
   14.7124   11.8264   11.9047 C   0  0  0  0  0  0  0  0  0  0  0  0
   14.5237   11.8496   13.3466 C   0  0  0  0  0  0  0  0  0  0  0  0
   15.5290    9.3803    9.4923 C   0  0  0  0  0  0  0  0  0  0  0  0
   15.1773   10.7604    9.8004 O   0  0  0  0  0  0  0  0  0  0  0  0
  3  4  1  0
  4  5  1  0
  5  6  1  0
  6  7  1  0
  7  2  1  0
  8 11  2  0
  9 10  2  0
  9 13  1  0
 10 11  1  0
 12 13  1  0
  3  9  1  0
  4 12  1  0
  2  8  1  0
  3  7  2  0
  4  1  1  6
M  END
>  <generation_date>  (23) 
None

>  <inchikey>  (23) 
ZRMCIUVWUAZRDK-JTQLQIEISA-N

>  <ref_mols>  (23) 
cx1372a,cx1305a

>  <tags>  (23) 
['butcher: adenine', 'pure_merges', 'fragmenstein', 'select (HA) [batch1_adenine]', 'raw']

>  <ref_pdb>  (23) 
cx0300a

>  <alias>  (23) 
cx1372a-cx1305a

>  <submitter_name>  (23) 
None

>  <HIPPO ID>  (23) 
785

>  <original ID>  (23) 
cx1372a-cx1305a

>  <method>  (23) 
None

>  <ref_url>  (23) 
None

>  <submitter_email>  (23) 
None

>  <original SMILES>  (23) 
N[C@]12CCC3=C1C(=CC=CN3)OC2

$$$$
cx1372a-cx0353a
     RDKit          3D

 15 17  0  0  0  0  0  0  0  0999 V2000
   14.7461   11.0238    9.6263 O   0  0  0  0  0  0  0  0  0  0  0  0
   14.6002    8.3416    9.7289 N   0  0  0  0  0  0  0  0  0  0  0  0
   14.8119    9.7748   11.7491 C   0  0  0  0  0  0  0  0  0  0  0  0
   14.8204    8.5021   11.1174 C   0  0  0  0  0  0  0  0  0  0  0  0
   14.8718    7.3486   11.9053 C   0  0  0  0  0  0  0  0  0  0  0  0
   15.0192    7.4386   13.2921 C   0  0  0  0  0  0  0  0  0  0  0  0
   15.0456    8.6846   13.9363 C   0  0  0  0  0  0  0  0  0  0  0  0
   14.8961    9.8615   13.1721 C   0  0  0  0  0  0  0  0  0  0  0  0
   14.6773   11.0054   11.0201 N   0  0  0  0  0  0  0  0  0  0  0  0
   14.4490   12.1731   11.7220 C   0  0  0  0  0  0  0  0  0  0  0  0
   14.4927   12.3064   13.0533 C   0  0  0  0  0  0  0  0  0  0  0  0
   14.8126   11.1087   13.8363 C   0  0  0  0  0  0  0  0  0  0  0  0
   14.9761   11.1889   15.2201 C   0  0  0  0  0  0  0  0  0  0  0  0
   15.1860   10.0282   15.9599 C   0  0  0  0  0  0  0  0  0  0  0  0
   15.2014    8.7851   15.3258 C   0  0  0  0  0  0  0  0  0  0  0  0
  3  8  1  0
  3  4  2  0
  4  5  1  0
  4  2  1  0
  5  6  2  0
  6  7  1  0
  7  8  2  0
  9 10  1  0
 10 11  2  0
 11 12  1  0
 12 13  2  0
 13 14  1  0
 14 15  2  0
  8 12  1  0
  3  9  1  0
  7 15  1  0
  9  1  1  0
M  END
>  <generation_date>  (24) 
None

>  <inchikey>  (24) 
DRPPCXAOOGNDIZ-UHFFFAOYSA-N

>  <ref_mols>  (24) 
cx1372a,cx0353a

>  <tags>  (24) 
['butcher: adenine', 'pure_merges', 'fragmenstein', 'select (HA) [batch1_adenine]', 'raw']

>  <ref_pdb>  (24) 
cx0300a

>  <alias>  (24) 
cx1372a-cx0353a

>  <submitter_name>  (24) 
None

>  <HIPPO ID>  (24) 
792

>  <original ID>  (24) 
cx1372a-cx0353a

>  <method>  (24) 
None

>  <ref_url>  (24) 
None

>  <submitter_email>  (24) 
None

>  <original SMILES>  (24) 
Nc1ccc2cccc3c2c1N(O)C=C3

$$$$
cx1372a-cx0406a
     RDKit          3D

 17 18  0  0  0  0  0  0  0  0999 V2000
   14.1851   12.1117   10.9633 N   0  0  0  0  0  0  0  0  0  0  0  0
   14.5285   10.9008   10.4451 C   0  0  0  0  0  0  0  0  0  0  0  0
   14.6788   10.7723    9.2330 O   0  0  0  0  0  0  0  0  0  0  0  0
   14.0805    7.9934    9.6775 N   0  0  0  0  0  0  0  0  0  0  0  0
   14.3246    8.8709   15.3881 Cl  0  0  0  0  0  0  0  0  0  0  0  0
   10.5676    6.0335   13.8589 O   0  0  0  0  0  0  0  0  0  0  0  0
   11.3116    5.2123   12.9752 C   0  0  0  0  0  0  0  0  0  0  0  0
   14.8931    9.7662   11.3983 C   0  0  2  0  0  0  0  0  0  0  0  0
   15.0110    8.3463   10.7420 C   0  0  1  0  0  0  0  0  0  0  0  0
   15.2103    7.1492   11.7158 C   0  0  0  0  0  0  0  0  0  0  0  0
   14.5296    7.2489   13.0985 C   0  0  1  0  0  0  0  0  0  0  0  0
   14.9535    8.6066   13.7279 C   0  0  1  0  0  0  0  0  0  0  0  0
   14.6955    9.8878   12.9150 C   0  0  0  0  0  0  0  0  0  0  0  0
   13.0409    7.0046   12.8944 C   0  0  0  0  0  0  0  0  0  0  0  0
   12.8055    5.5120   13.0148 C   0  0  1  0  0  0  0  0  0  0  0  0
   13.6171    5.2363   14.2641 C   0  0  0  0  0  0  0  0  0  0  0  0
   14.9189    6.0229   14.0000 C   0  0  0  0  0  0  0  0  0  0  0  0
  2  1  1  0
  3  2  2  0
  7  6  1  0
  8  2  1  6
  8 13  1  0
  8  9  1  0
  9 10  1  0
  9  4  1  1
 11 10  1  6
 11 12  1  0
 12 13  1  0
 12  5  1  1
 14 15  1  0
 15 16  1  0
 15  7  1  1
 16 17  1  0
 11 14  1  0
 11 17  1  0
M  END
>  <generation_date>  (25) 
None

>  <inchikey>  (25) 
KXSCDLDOWHFTQS-KNDBQHFLSA-N

>  <ref_mols>  (25) 
cx1372a,cx0406a

>  <tags>  (25) 
['butcher: adenine', 'pure_merges', 'butcher: phosphate', 'fragmenstein', 'select (HA) [batch4_others]', 'raw']

>  <ref_pdb>  (25) 
cx0300a

>  <alias>  (25) 
cx1372a-cx0406a

>  <submitter_name>  (25) 
None

>  <HIPPO ID>  (25) 
799

>  <original ID>  (25) 
cx1372a-cx0406a

>  <method>  (25) 
None

>  <ref_url>  (25) 
None

>  <submitter_email>  (25) 
None

>  <original SMILES>  (25) 
NC(=O)[C@H]1C[C@@H](Cl)[C@]2(CC[C@@H](CO)C2)C[C@H]1N

$$$$
cx1372a-cx0756a
     RDKit          3D

 15 17  0  0  0  0  0  0  0  0999 V2000
   14.8845   10.8751    9.5183 O   0  0  0  0  0  0  0  0  0  0  0  0
   14.5478    8.2107    9.9328 N   0  0  0  0  0  0  0  0  0  0  0  0
   14.7887    9.9448   11.7317 C   0  0  0  0  0  0  0  0  0  0  0  0
   14.7322    8.5276   11.3181 C   0  0  0  0  0  0  0  0  0  0  0  0
   14.9249    7.4363   12.2036 C   0  0  0  0  0  0  0  0  0  0  0  0
   15.0239    7.8681   13.5196 C   0  0  0  0  0  0  0  0  0  0  0  0
   14.9590    9.2206   14.0098 C   0  0  0  0  0  0  0  0  0  0  0  0
   14.8137   10.3082   13.1085 C   0  0  0  0  0  0  0  0  0  0  0  0
   15.2050    7.9077   15.6744 N   0  0  0  0  0  0  0  0  0  0  0  0
   15.1871    7.0570   14.6065 C   0  0  0  0  0  0  0  0  0  0  0  0
   15.0437    9.2055   15.3531 N   0  0  0  0  0  0  0  0  0  0  0  0
   14.6565   11.6311   13.5393 C   0  0  0  0  0  0  0  0  0  0  0  0
   14.4852   12.5909   12.5684 C   0  0  0  0  0  0  0  0  0  0  0  0
   14.5444   12.3400   11.2464 N   0  0  0  0  0  0  0  0  0  0  0  0
   14.7301   11.0553   10.8695 C   0  0  0  0  0  0  0  0  0  0  0  0
  3  8  2  0
  3  4  1  0
  4  5  2  0
  4  2  1  0
  5  6  1  0
  6  7  1  0
  7  8  1  0
  9 10  1  0
  9 11  1  0
 12 13  2  0
 13 14  1  0
 14 15  2  0
  3 15  1  0
  8 12  1  0
  6 10  2  0
  7 11  2  0
 15  1  1  0
M  END
>  <generation_date>  (26) 
None

>  <inchikey>  (26) 
PDJAWWUFDCOFLK-UHFFFAOYSA-N

>  <ref_mols>  (26) 
cx1372a,cx0756a

>  <tags>  (26) 
['butcher: adenine', 'pure_merges', 'fragmenstein', 'select (HA) [batch1_adenine]', 'raw']

>  <ref_pdb>  (26) 
cx0300a

>  <alias>  (26) 
cx1372a-cx0756a

>  <submitter_name>  (26) 
None

>  <HIPPO ID>  (26) 
800

>  <original ID>  (26) 
cx1372a-cx0756a

>  <method>  (26) 
None

>  <ref_url>  (26) 
None

>  <submitter_email>  (26) 
None

>  <original SMILES>  (26) 
Nc1cc2c[nH]nc2c2ccnc(O)c12

$$$$
cx1372a-cx1417a
     RDKit          3D

 15 16  0  0  0  0  0  0  0  0999 V2000
   14.6629   11.3533    9.6109 O   0  0  0  0  0  0  0  0  0  0  0  0
   14.6473    8.3766    9.6187 N   0  0  0  0  0  0  0  0  0  0  0  0
   14.9519    9.3036   15.3194 C   0  0  0  0  0  0  0  0  0  0  0  0
   16.9305    7.7772   15.8322 C   0  0  0  0  0  0  0  0  0  0  0  0
   15.4915    8.1476   16.1617 C   0  0  0  0  0  0  0  0  0  0  0  0
   14.6276   12.4768   14.1959 C   0  0  0  0  0  0  0  0  0  0  0  0
   14.8005    9.9210   11.5426 C   0  0  0  0  0  0  0  0  0  0  0  0
   14.7446    8.6288   10.9900 C   0  0  0  0  0  0  0  0  0  0  0  0
   14.7482    7.5700   11.8951 C   0  0  0  0  0  0  0  0  0  0  0  0
   14.8154    7.8006   13.2689 C   0  0  0  0  0  0  0  0  0  0  0  0
   14.8927    9.1029   13.8236 C   0  0  0  0  0  0  0  0  0  0  0  0
   14.8261   10.1907   12.9104 C   0  0  0  0  0  0  0  0  0  0  0  0
   14.6055   12.1896   11.7718 N   0  0  0  0  0  0  0  0  0  0  0  0
   14.7006   11.6216   12.9865 C   0  0  0  0  0  0  0  0  0  0  0  0
   14.7369   11.1469   10.9604 N   0  0  0  0  0  0  0  0  0  0  0  0
  5  4  1  0
  5  3  1  0
  7 12  1  0
  7  8  2  0
  8  9  1  0
  8  2  1  0
  9 10  2  0
 10 11  1  0
 11 12  2  0
 11  3  1  0
 13 14  2  0
 13 15  1  0
 14  6  1  0
 12 14  1  0
  7 15  1  0
 15  1  1  0
M  END
>  <generation_date>  (27) 
None

>  <inchikey>  (27) 
NUNGWDWCSJIJQO-UHFFFAOYSA-N

>  <ref_mols>  (27) 
cx1372a,cx1417a

>  <tags>  (27) 
['butcher: adenine', 'pure_merges', 'fragmenstein', 'select (HA) [batch1_adenine]', 'raw']

>  <ref_pdb>  (27) 
cx0300a

>  <alias>  (27) 
cx1372a-cx1417a

>  <submitter_name>  (27) 
None

>  <HIPPO ID>  (27) 
802

>  <original ID>  (27) 
cx1372a-cx1417a

>  <method>  (27) 
None

>  <ref_url>  (27) 
None

>  <submitter_email>  (27) 
None

>  <original SMILES>  (27) 
CCCc1ccc(N)c2c1c(C)nn2O

$$$$
cx1372a-cx1268a
     RDKit          3D

 14 15  0  0  0  0  0  0  0  0999 V2000
   14.4110   11.7895   10.2852 O   0  0  0  0  0  0  0  0  0  0  0  0
   14.7790    8.7532    9.9392 C   0  0  0  0  0  0  0  0  0  0  0  0
   15.0442    9.1977   15.8829 Cl  0  0  0  0  0  0  0  0  0  0  0  0
   15.5881    9.6029    9.2297 N   0  0  0  0  0  0  0  0  0  0  0  0
   14.1222    7.8826    9.3945 O   0  0  0  0  0  0  0  0  0  0  0  0
   14.7952   10.1455   12.0558 C   0  0  0  0  0  0  0  0  0  0  0  0
   14.8132    8.8898   11.4010 C   0  0  0  0  0  0  0  0  0  0  0  0
   14.8478    7.7165   12.1798 C   0  0  0  0  0  0  0  0  0  0  0  0
   14.9411    7.7907   13.5652 C   0  0  0  0  0  0  0  0  0  0  0  0
   14.9503    9.0397   14.1869 C   0  0  0  0  0  0  0  0  0  0  0  0
   14.8375   10.2396   13.4562 C   0  0  0  0  0  0  0  0  0  0  0  0
   14.6306   11.4302   11.5949 N   0  0  0  0  0  0  0  0  0  0  0  0
   14.5191   12.3158   12.6172 C   0  0  0  0  0  0  0  0  0  0  0  0
   14.6927   11.6199   13.7888 C   0  0  0  0  0  0  0  0  0  0  0  0
  4  2  1  0
  5  2  2  0
  6 11  1  0
  6  7  2  0
  7  8  1  0
  7  2  1  0
  8  9  2  0
  9 10  1  0
 10 11  2  0
 10  3  1  0
 12 13  1  0
 13 14  2  0
  6 12  1  0
 11 14  1  0
 12  1  1  0
M  END
>  <generation_date>  (28) 
None

>  <inchikey>  (28) 
IAFCMWMCCOCPMS-UHFFFAOYSA-N

>  <ref_mols>  (28) 
cx1372a,cx1268a

>  <tags>  (28) 
['butcher: adenine', 'pure_merges', 'fragmenstein', 'select (HA) [batch1_adenine]', 'raw']

>  <ref_pdb>  (28) 
cx0300a

>  <alias>  (28) 
cx1372a-cx1268a

>  <submitter_name>  (28) 
None

>  <HIPPO ID>  (28) 
805

>  <original ID>  (28) 
cx1372a-cx1268a

>  <method>  (28) 
None

>  <ref_url>  (28) 
None

>  <submitter_email>  (28) 
None

>  <original SMILES>  (28) 
NC(=O)c1ccc(Cl)c2ccn(O)c12

$$$$
cx1372a-cx1379a
     RDKit          3D

 14 15  0  0  0  0  0  0  0  0999 V2000
   14.8691   10.5930    9.3522 O   0  0  0  0  0  0  0  0  0  0  0  0
   14.3920    7.9673    9.7593 N   0  0  0  0  0  0  0  0  0  0  0  0
   15.4748    8.9396   15.3023 C   0  0  0  0  0  0  0  0  0  0  0  0
   14.2058    8.7147   16.0855 C   0  0  0  0  0  0  0  0  0  0  0  0
   14.8147    9.6130   11.5733 C   0  0  0  0  0  0  0  0  0  0  0  0
   14.6958    8.2651   11.1161 C   0  0  0  0  0  0  0  0  0  0  0  0
   14.9640    7.2046   11.9790 C   0  0  0  0  0  0  0  0  0  0  0  0
   15.2241    7.4550   13.3195 C   0  0  0  0  0  0  0  0  0  0  0  0
   15.1998    8.7665   13.8282 C   0  0  0  0  0  0  0  0  0  0  0  0
   14.9249    9.8639   12.9687 C   0  0  0  0  0  0  0  0  0  0  0  0
   14.7367   10.7249   10.7111 C   0  0  0  0  0  0  0  0  0  0  0  0
   14.5035   12.0049   11.1903 C   0  0  0  0  0  0  0  0  0  0  0  0
   14.4693   12.2407   12.5549 C   0  0  0  0  0  0  0  0  0  0  0  0
   14.7318   11.1905   13.4325 C   0  0  0  0  0  0  0  0  0  0  0  0
  4  3  1  0
  5 10  1  0
  5  6  2  0
  6  7  1  0
  6  2  1  0
  7  8  2  0
  8  9  1  0
  9 10  2  0
  9  3  1  0
 11 12  2  0
 12 13  1  0
 13 14  2  0
 10 14  1  0
  5 11  1  0
 11  1  1  0
M  END
>  <generation_date>  (29) 
None

>  <inchikey>  (29) 
HVOAJNGPZJWKMT-UHFFFAOYSA-N

>  <ref_mols>  (29) 
cx1372a,cx1379a

>  <tags>  (29) 
['butcher: adenine', 'pure_merges', 'fragmenstein', 'select (HA) [batch1_adenine]', 'raw']

>  <ref_pdb>  (29) 
cx0300a

>  <alias>  (29) 
cx1372a-cx1379a

>  <submitter_name>  (29) 
None

>  <HIPPO ID>  (29) 
807

>  <original ID>  (29) 
cx1372a-cx1379a

>  <method>  (29) 
None

>  <ref_url>  (29) 
None

>  <submitter_email>  (29) 
None

>  <original SMILES>  (29) 
CCc1ccc(N)c2c(O)cccc12

$$$$
cx0732a-cx1135a
     RDKit          3D

 17 18  0  0  0  0  0  0  0  0999 V2000
   17.2222    1.8141   16.2422 N   0  0  0  0  0  0  0  0  0  0  0  0
   16.5498    3.0712   15.9306 C   0  0  0  0  0  0  0  0  0  0  0  0
   15.2973    1.0172   17.1966 O   0  0  0  0  0  0  0  0  0  0  0  0
   18.6689    1.7942   16.1144 C   0  0  0  0  0  0  0  0  0  0  0  0
   16.4683    0.8139   16.8736 C   0  0  0  0  0  0  0  0  0  0  0  0
   17.0783   -0.4618   17.2422 C   0  0  0  0  0  0  0  0  0  0  0  0
   16.5247   -1.3868   18.1671 C   0  0  0  0  0  0  0  0  0  0  0  0
   17.2924   -2.4627   18.3610 N   0  0  0  0  0  0  0  0  0  0  0  0
   18.3286   -2.2544   17.5417 N   0  0  0  0  0  0  0  0  0  0  0  0
   18.2271   -1.1031   16.8187 C   0  0  0  0  0  0  0  0  0  0  0  0
   18.6421    4.1411   11.8133 O   0  0  0  0  0  0  0  0  0  0  0  0
   16.4443    3.3131   14.4523 C   0  0  0  0  0  0  0  0  0  0  0  0
   17.5854    3.5906   13.7345 N   0  0  0  0  0  0  0  0  0  0  0  0
   17.5996    3.9137   12.4065 C   0  0  0  0  0  0  0  0  0  0  0  0
   16.2896    3.9961   11.7297 C   0  0  0  0  0  0  0  0  0  0  0  0
   15.1825    3.7232   12.4278 C   0  0  0  0  0  0  0  0  0  0  0  0
   15.2598    3.3712   13.8238 C   0  0  0  0  0  0  0  0  0  0  0  0
  2  1  1  0
  4  1  1  0
  5  3  2  0
  5  1  1  0
  6  5  1  0
  6  7  1  0
  6 10  2  0
  7  8  2  0
  8  9  1  0
  9 10  1  0
 12 17  2  0
 12 13  1  0
 13 14  1  0
 14 11  2  0
 14 15  1  0
 15 16  2  0
 16 17  1  0
  2 12  1  0
M  END
>  <generation_date>  (30) 
None

>  <inchikey>  (30) 
ZJENMQHSGLZNHL-UHFFFAOYSA-N

>  <ref_mols>  (30) 
cx0732a,cx1135a

>  <tags>  (30) 
['pure_merges', 'fragmenstein', 'butcher: oxyanion', 'select (JA) [batch3_oxyanion]', 'raw']

>  <ref_pdb>  (30) 
cx0300a

>  <alias>  (30) 
cx0732a-cx1135a

>  <submitter_name>  (30) 
None

>  <HIPPO ID>  (30) 
814

>  <original ID>  (30) 
cx0732a-cx1135a

>  <method>  (30) 
None

>  <ref_url>  (30) 
None

>  <submitter_email>  (30) 
None

>  <original SMILES>  (30) 
CN(Cc1cccc(=O)[nH]1)C(=O)c1cn[nH]c1

$$$$
cx0732a-cx0300a
     RDKit          3D

 24 26  0  0  0  0  0  0  0  0999 V2000
   17.3360    2.2353   15.8728 N   0  0  0  0  0  0  0  0  0  0  0  0
   15.3225    1.8841   16.9266 O   0  0  0  0  0  0  0  0  0  0  0  0
   18.7615    2.0678   16.1412 C   0  0  0  0  0  0  0  0  0  0  0  0
   16.4257    1.4411   16.6153 C   0  0  0  0  0  0  0  0  0  0  0  0
   15.2111    5.2624   14.5506 N   0  0  0  0  0  0  0  0  0  0  0  0
   14.9318    6.1383   15.5648 C   0  0  0  0  0  0  0  0  0  0  0  0
   14.7657    5.8036   16.7305 O   0  0  0  0  0  0  0  0  0  0  0  0
   18.6847    4.3675   12.1893 O   0  0  0  0  0  0  0  0  0  0  0  0
   16.7811    0.0828   17.0659 C   0  0  0  0  0  0  0  0  0  0  0  0
   16.0105   -0.6538   17.9537 C   0  0  0  0  0  0  0  0  0  0  0  0
   16.6171   -1.8607   18.1223 N   0  0  0  0  0  0  0  0  0  0  0  0
   17.7499   -1.9848   17.4156 N   0  0  0  0  0  0  0  0  0  0  0  0
   17.8337   -0.8205   16.7632 C   0  0  0  0  0  0  0  0  0  0  0  0
   16.9347    3.6305   15.4183 C   0  0  1  0  0  0  0  0  0  0  0  0
   17.9517    4.2524   14.4291 C   0  0  0  0  0  0  0  0  0  0  0  0
   17.8456    3.6352   13.0379 C   0  0  1  0  0  0  0  0  0  0  0  0
   16.5341    3.7127   12.4552 N   0  0  0  0  0  0  0  0  0  0  0  0
   15.5285    3.1596   13.3711 C   0  0  0  0  0  0  0  0  0  0  0  0
   15.5297    3.8338   14.7464 C   0  0  2  0  0  0  0  0  0  0  0  0
   14.7610    8.6193   15.9540 C   0  0  0  0  0  0  0  0  0  0  0  0
   14.9003    7.5325   15.1098 C   0  0  0  0  0  0  0  0  0  0  0  0
   15.0511    7.8628   13.7560 N   0  0  0  0  0  0  0  0  0  0  0  0
   14.9878    9.1700   13.6193 C   0  0  0  0  0  0  0  0  0  0  0  0
   14.8365   10.0789   15.0608 S   0  0  0  0  0  0  0  0  0  0  0  0
  3  1  1  0
  4  2  2  0
  4  1  1  0
  6  5  1  0
  7  6  2  0
  9  4  1  0
  9 10  2  0
  9 13  1  0
 10 11  1  0
 11 12  1  0
 12 13  2  0
 14 19  1  0
 14 15  1  0
 15 16  1  0
 16 17  1  0
 16  8  1  6
 17 18  1  0
 18 19  1  0
 19  5  1  6
 20 21  2  0
 20 24  1  0
 21  6  1  0
 21 22  1  0
 22 23  2  0
 23 24  1  0
 14  1  1  6
M  END
>  <generation_date>  (31) 
None

>  <inchikey>  (31) 
LDWRVYYEBGYWCU-DLOVCJGASA-N

>  <ref_mols>  (31) 
cx0732a,cx0300a

>  <tags>  (31) 
['butcher: adenine', 'pure_merges', 'fragmenstein', 'select (HA) [batch4_others]', 'butcher: oxyanion', 'raw']

>  <ref_pdb>  (31) 
cx0300a

>  <alias>  (31) 
cx0732a-cx0300a

>  <submitter_name>  (31) 
None

>  <HIPPO ID>  (31) 
815

>  <original ID>  (31) 
cx0732a-cx0300a

>  <method>  (31) 
None

>  <ref_url>  (31) 
None

>  <submitter_email>  (31) 
None

>  <original SMILES>  (31) 
CN(C(=O)c1cn[nH]c1)[C@H]1C[C@H](O)NC[C@@H]1NC(=O)c1cscn1

$$$$
cx0732a-cx1091a
     RDKit          3D

 19 20  0  0  0  0  0  0  0  0999 V2000
   17.4016    1.7443   15.7077 N   0  0  0  0  0  0  0  0  0  0  0  0
   15.3475    1.6843   16.7374 O   0  0  0  0  0  0  0  0  0  0  0  0
   18.7944    1.6552   16.1717 C   0  0  0  0  0  0  0  0  0  0  0  0
   16.4090    1.1171   16.4873 C   0  0  0  0  0  0  0  0  0  0  0  0
   17.2495    5.3281   11.6519 O   0  0  0  0  0  0  0  0  0  0  0  0
   15.2123    3.5623   11.6191 C   0  0  0  0  0  0  0  0  0  0  0  0
   14.3303    4.7770   11.2839 C   0  0  0  0  0  0  0  0  0  0  0  0
   13.8993    4.7445    9.9213 O   0  0  0  0  0  0  0  0  0  0  0  0
   16.6911   -0.1872   17.1092 C   0  0  0  0  0  0  0  0  0  0  0  0
   15.9598   -0.7360   18.1496 C   0  0  0  0  0  0  0  0  0  0  0  0
   16.5120   -1.9476   18.4394 N   0  0  0  0  0  0  0  0  0  0  0  0
   17.5640   -2.2494   17.6635 N   0  0  0  0  0  0  0  0  0  0  0  0
   17.6473   -1.2020   16.8395 C   0  0  0  0  0  0  0  0  0  0  0  0
   16.0772    3.7069   12.8039 N   0  0  0  0  0  0  0  0  0  0  0  0
   16.0949    2.7852   13.8748 C   0  0  0  0  0  0  0  0  0  0  0  0
   17.0987    2.7809   14.7904 C   0  0  0  0  0  0  0  0  0  0  0  0
   18.0126    3.9061   14.7615 C   0  0  0  0  0  0  0  0  0  0  0  0
   18.0335    4.7796   13.7609 C   0  0  0  0  0  0  0  0  0  0  0  0
   17.1020    4.6254   12.6416 C   0  0  0  0  0  0  0  0  0  0  0  0
  3  1  1  0
  4  2  2  0
  4  1  1  0
  7  6  1  0
  8  7  1  0
  9  4  1  0
  9 10  2  0
  9 13  1  0
 10 11  1  0
 11 12  1  0
 12 13  2  0
 14 19  1  0
 14  6  1  0
 14 15  1  0
 15 16  2  0
 16 17  1  0
 17 18  2  0
 18 19  1  0
 19  5  2  0
 16  1  1  0
M  END
>  <generation_date>  (32) 
None

>  <inchikey>  (32) 
BUGKJGCKUVGRLJ-UHFFFAOYSA-N

>  <ref_mols>  (32) 
cx0732a,cx1091a

>  <tags>  (32) 
['pure_merges', 'fragmenstein', 'butcher: oxyanion', 'select (HA) [batch3_oxyanion]', 'raw']

>  <ref_pdb>  (32) 
cx0300a

>  <alias>  (32) 
cx0732a-cx1091a

>  <submitter_name>  (32) 
None

>  <HIPPO ID>  (32) 
821

>  <original ID>  (32) 
cx0732a-cx1091a

>  <method>  (32) 
None

>  <ref_url>  (32) 
None

>  <submitter_email>  (32) 
None

>  <original SMILES>  (32) 
CN(C(=O)c1cn[nH]c1)c1ccc(=O)n(CCO)c1

$$$$
cx0732a-cx0316a
     RDKit          3D

 24 26  0  0  0  0  0  0  0  0999 V2000
   17.3547    1.8192   15.8709 N   0  0  0  0  0  0  0  0  0  0  0  0
   15.2889    1.6378   16.8535 O   0  0  0  0  0  0  0  0  0  0  0  0
   18.7738    1.5324   16.1190 C   0  0  0  0  0  0  0  0  0  0  0  0
   16.3747    1.1193   16.5993 C   0  0  0  0  0  0  0  0  0  0  0  0
   13.8321    8.9183    9.1209 C   0  0  0  0  0  0  0  0  0  0  0  0
   17.6348    4.9296   11.6737 O   0  0  0  0  0  0  0  0  0  0  0  0
   14.6427    8.3783   10.2856 C   0  0  0  0  0  0  0  0  0  0  0  0
   15.2085    3.6789   11.8249 C   0  0  0  0  0  0  0  0  0  0  0  0
   16.6894   -0.1969   17.1796 C   0  0  0  0  0  0  0  0  0  0  0  0
   15.9484   -0.7991   18.1834 C   0  0  0  0  0  0  0  0  0  0  0  0
   16.5305   -2.0001   18.4548 N   0  0  0  0  0  0  0  0  0  0  0  0
   17.6108   -2.2466   17.6994 N   0  0  0  0  0  0  0  0  0  0  0  0
   17.6855   -1.1715   16.9100 C   0  0  0  0  0  0  0  0  0  0  0  0
   15.0969    6.2297   11.5211 N   0  0  0  0  0  0  0  0  0  0  0  0
   14.4099    6.9611   10.6677 C   0  0  0  0  0  0  0  0  0  0  0  0
   13.4974    6.2408    9.9594 O   0  0  0  0  0  0  0  0  0  0  0  0
   13.6491    4.9157   10.3534 N   0  0  0  0  0  0  0  0  0  0  0  0
   14.6203    4.9561   11.2787 C   0  0  0  0  0  0  0  0  0  0  0  0
   16.0450    2.9043   14.0800 C   0  0  0  0  0  0  0  0  0  0  0  0
   16.0880    3.8186   12.9970 N   0  0  0  0  0  0  0  0  0  0  0  0
   17.2608    4.5244   12.7635 C   0  0  0  0  0  0  0  0  0  0  0  0
   18.0827    4.7993   13.9501 C   0  0  0  0  0  0  0  0  0  0  0  0
   17.9436    4.0104   15.0114 C   0  0  0  0  0  0  0  0  0  0  0  0
   17.0438    2.8765   14.9972 C   0  0  0  0  0  0  0  0  0  0  0  0
  3  1  1  0
  4  2  2  0
  4  1  1  0
  7  5  1  0
  9  4  1  0
  9 10  2  0
  9 13  1  0
 10 11  1  0
 11 12  1  0
 12 13  2  0
 14 15  2  0
 14 18  1  0
 15  7  1  0
 15 16  1  0
 16 17  1  0
 17 18  2  0
 18  8  1  0
 19 24  2  0
 19 20  1  0
 20  8  1  0
 20 21  1  0
 21 22  1  0
 21  6  2  0
 22 23  2  0
 23 24  1  0
 24  1  1  0
M  END
>  <generation_date>  (33) 
None

>  <inchikey>  (33) 
LWEAUJBENHSDRR-UHFFFAOYSA-N

>  <ref_mols>  (33) 
cx0732a,cx0316a

>  <tags>  (33) 
['butcher: adenine', 'pure_merges', 'fragmenstein', 'select (HA) [batch4_others]', 'butcher: oxyanion', 'raw']

>  <ref_pdb>  (33) 
cx0300a

>  <alias>  (33) 
cx0732a-cx0316a

>  <submitter_name>  (33) 
None

>  <HIPPO ID>  (33) 
822

>  <original ID>  (33) 
cx0732a-cx0316a

>  <method>  (33) 
None

>  <ref_url>  (33) 
None

>  <submitter_email>  (33) 
None

>  <original SMILES>  (33) 
CCc1nc(Cn2cc(N(C)C(=O)c3cn[nH]c3)ccc2=O)no1

$$$$
cx0544a-cx1194a
     RDKit          3D

 20 20  0  0  0  0  0  0  0  0999 V2000
   14.5540    8.1826   10.3586 C   0  0  0  0  0  0  0  0  0  0  0  0
   15.2318   16.2219   14.3546 C   0  0  0  0  0  0  0  0  0  0  0  0
   15.6966   14.9528   14.5887 N   0  0  0  0  0  0  0  0  0  0  0  0
   16.1088   16.9790   13.6528 N   0  0  0  0  0  0  0  0  0  0  0  0
   14.1294   16.6416   14.6680 O   0  0  0  0  0  0  0  0  0  0  0  0
   14.5349    6.7914   15.1922 C   0  0  0  0  0  0  0  0  0  0  0  0
   14.3674   12.8236   10.6089 O   0  0  0  0  0  0  0  0  0  0  0  0
   15.3466   10.4001   13.2979 C   0  0  0  0  0  0  0  0  0  0  0  0
   14.3456   13.3930   13.4070 C   0  0  0  0  0  0  0  0  0  0  0  0
   14.6954   13.9087   14.7643 C   0  0  1  0  0  0  0  0  0  0  0  0
   15.0338   12.8189   15.7890 C   0  0  0  0  0  0  0  0  0  0  0  0
   15.9191   11.6125   15.4518 C   0  0  0  0  0  0  0  0  0  0  0  0
   15.3636   10.4290   14.6892 C   0  0  0  0  0  0  0  0  0  0  0  0
   14.8575   10.5924   10.4563 N   0  0  0  0  0  0  0  0  0  0  0  0
   14.1972   11.6731   10.9514 C   0  0  0  0  0  0  0  0  0  0  0  0
   14.9346    9.2955   12.5417 C   0  0  0  0  0  0  0  0  0  0  0  0
   14.8572    9.3688   11.1309 N   0  0  0  0  0  0  0  0  0  0  0  0
   14.7289    8.1218   14.5332 C   0  0  0  0  0  0  0  0  0  0  0  0
   14.6745    8.1406   13.1756 N   0  0  0  0  0  0  0  0  0  0  0  0
   15.0183    9.2424   15.3170 C   0  0  0  0  0  0  0  0  0  0  0  0
  3  2  1  0
  4  2  1  0
  5  2  2  0
  8 13  2  0
 10  9  1  6
 10 11  1  0
 10  3  1  0
 11 12  1  0
 12 13  1  0
 14 15  1  0
 14 17  1  0
 15  7  2  0
 16 17  1  0
 16 19  2  0
 18  6  1  0
 18 20  2  0
 18 19  1  0
  8 16  1  0
 13 20  1  0
 17  1  1  0
M  END
>  <generation_date>  (34) 
None

>  <inchikey>  (34) 
OYZLDUQCBJYBED-VIFPVBQESA-N

>  <ref_mols>  (34) 
cx0544a,cx1194a

>  <tags>  (34) 
['butcher: adenine', 'pure_merges', 'fragmenstein', 'select (HA) [batch1_adenine]', 'raw']

>  <ref_pdb>  (34) 
cx0300a

>  <alias>  (34) 
cx0544a-cx1194a

>  <submitter_name>  (34) 
None

>  <HIPPO ID>  (34) 
827

>  <original ID>  (34) 
cx0544a-cx1194a

>  <method>  (34) 
None

>  <ref_url>  (34) 
None

>  <submitter_email>  (34) 
None

>  <original SMILES>  (34) 
Cc1cc(CC[C@H](C)NC(N)=O)cc(N(C)NC=O)n1

$$$$
cx0544a-cx1076a
     RDKit          3D

 15 15  0  0  0  0  0  0  0  0999 V2000
   14.8279   10.0109   11.9807 N   0  0  0  0  0  0  0  0  0  0  0  0
   14.7791    8.8917    9.8466 C   0  0  0  0  0  0  0  0  0  0  0  0
   14.9873   11.2454   10.0149 O   0  0  0  0  0  0  0  0  0  0  0  0
   14.8601   10.1865   10.6119 C   0  0  0  0  0  0  0  0  0  0  0  0
   14.9064   15.7435   14.2559 C   0  0  0  0  0  0  0  0  0  0  0  0
   15.0743   14.6427   13.4616 N   0  0  0  0  0  0  0  0  0  0  0  0
   15.4194   16.8673   13.6710 N   0  0  0  0  0  0  0  0  0  0  0  0
   14.3684   15.8036   15.3502 O   0  0  0  0  0  0  0  0  0  0  0  0
   14.9180    8.7135   14.7835 Br  0  0  0  0  0  0  0  0  0  0  0  0
   14.8143   10.9917   13.0023 C   0  0  0  0  0  0  0  0  0  0  0  0
   14.7650   12.3639   12.7523 C   0  0  0  0  0  0  0  0  0  0  0  0
   14.8682   13.2948   13.8048 C   0  0  0  0  0  0  0  0  0  0  0  0
   14.9239   12.8511   15.1221 C   0  0  0  0  0  0  0  0  0  0  0  0
   14.9330   11.4836   15.3874 C   0  0  0  0  0  0  0  0  0  0  0  0
   14.8795   10.5635   14.3382 C   0  0  0  0  0  0  0  0  0  0  0  0
  4  2  1  0
  4  1  1  0
  4  3  2  0
  6  5  1  0
  7  5  1  0
  8  5  2  0
 10  1  1  0
 10 15  2  0
 10 11  1  0
 11 12  2  0
 12 13  1  0
 12  6  1  0
 13 14  2  0
 14 15  1  0
  9 15  1  0
M  END
>  <generation_date>  (35) 
None

>  <inchikey>  (35) 
VQTWUMRSZYGMRP-UHFFFAOYSA-N

>  <ref_mols>  (35) 
cx0544a,cx1076a

>  <tags>  (35) 
['butcher: adenine', 'pure_merges', 'fragmenstein', 'select (HA) [batch1_adenine]', 'raw']

>  <ref_pdb>  (35) 
cx0300a

>  <alias>  (35) 
cx0544a-cx1076a

>  <submitter_name>  (35) 
None

>  <HIPPO ID>  (35) 
829

>  <original ID>  (35) 
cx0544a-cx1076a

>  <method>  (35) 
None

>  <ref_url>  (35) 
None

>  <submitter_email>  (35) 
None

>  <original SMILES>  (35) 
CC(=O)Nc1cc(NC(N)=O)ccc1Br

$$$$
cx0544a-cx0406a
     RDKit          3D

 25 28  0  0  0  0  0  0  0  0999 V2000
   14.8822   15.7165   14.5213 C   0  0  0  0  0  0  0  0  0  0  0  0
   15.1097   14.6257   13.7414 N   0  0  0  0  0  0  0  0  0  0  0  0
   15.3003   16.8663   13.9091 N   0  0  0  0  0  0  0  0  0  0  0  0
   14.3521   15.7473   15.6203 O   0  0  0  0  0  0  0  0  0  0  0  0
   14.0825   12.3055   10.7338 C   0  0  0  0  0  0  0  0  0  0  0  0
   11.2372    6.7041   13.3163 O   0  0  0  0  0  0  0  0  0  0  0  0
   12.0280    6.0229   12.3531 C   0  0  0  0  0  0  0  0  0  0  0  0
   15.0252    7.6335   12.1777 N   0  0  0  0  0  0  0  0  0  0  0  0
   14.8034   10.9683   13.0878 C   0  0  0  0  0  0  0  0  0  0  0  0
   14.7860   12.3860   12.9592 C   0  0  0  0  0  0  0  0  0  0  0  0
   14.9254   13.2608   14.0540 C   0  0  0  0  0  0  0  0  0  0  0  0
   14.9995   12.7297   15.3272 C   0  0  0  0  0  0  0  0  0  0  0  0
   15.0064   11.3360   15.4781 C   0  0  0  0  0  0  0  0  0  0  0  0
   14.9207   10.4663   14.3730 C   0  0  0  0  0  0  0  0  0  0  0  0
   14.6633   10.3005    9.4733 N   0  0  0  0  0  0  0  0  0  0  0  0
   14.5590   10.9168   10.6388 C   0  0  0  0  0  0  0  0  0  0  0  0
   14.7698   10.1747   11.8490 C   0  0  0  0  0  0  0  0  0  0  0  0
   14.8371    8.8162   11.5254 C   0  0  0  0  0  0  0  0  0  0  0  0
   14.8298    8.7059    9.7838 S   0  0  0  0  0  0  0  0  0  0  0  0
   15.1578    6.6334   14.3592 C   0  0  0  0  0  0  0  0  0  0  0  0
   14.2035    7.1329   13.2653 C   0  0  2  0  0  0  0  0  0  0  0  0
   13.4552    5.8344   12.8670 C   0  0  1  0  0  0  0  0  0  0  0  0
   13.4810    4.9642   14.1317 C   0  0  0  0  0  0  0  0  0  0  0  0
   14.2826    5.7160   15.1787 C   0  0  0  0  0  0  0  0  0  0  0  0
   14.7475   13.0528   11.7445 O   0  0  0  0  0  0  0  0  0  0  0  0
  2  1  1  0
  3  1  1  0
  4  1  2  0
  7  6  1  0
  9 14  1  0
  9 10  2  0
 10 11  1  0
 11 12  2  0
 11  2  1  0
 12 13  1  0
 13 14  2  0
 15 16  2  0
 15 19  1  0
 16  5  1  0
 16 17  1  0
 17 18  2  0
 18  8  1  0
 18 19  1  0
 20 21  1  0
 20 24  1  0
 21 22  1  0
 21  8  1  6
 22 23  1  0
 22  7  1  1
 23 24  1  0
 17  9  1  0
 10 25  1  0
 25  5  1  0
M  END
>  <generation_date>  (36) 
None

>  <inchikey>  (36) 
OAICSEFZSKZFMV-GXSJLCMTSA-N

>  <ref_mols>  (36) 
cx0544a,cx0406a

>  <tags>  (36) 
['butcher: adenine', 'pure_merges', 'butcher: phosphate', 'fragmenstein', 'select (HA) [batch4_others]', 'raw']

>  <ref_pdb>  (36) 
cx0300a

>  <alias>  (36) 
cx0544a-cx0406a

>  <submitter_name>  (36) 
None

>  <HIPPO ID>  (36) 
831

>  <original ID>  (36) 
cx0544a-cx0406a

>  <method>  (36) 
None

>  <ref_url>  (36) 
None

>  <submitter_email>  (36) 
None

>  <original SMILES>  (36) 
NC(=O)Nc1cccc2c1OCc1nsc(N[C@@H]3CCC[C@H]3CO)c1-2

$$$$
cx0544a-cx0399a
     RDKit          3D

 15 16  0  0  0  0  0  0  0  0999 V2000
   14.8811   10.2562   12.0038 N   0  0  0  0  0  0  0  0  0  0  0  0
   14.7867    9.6230    9.6796 C   0  0  0  0  0  0  0  0  0  0  0  0
   14.7217   11.9008   10.4100 O   0  0  0  0  0  0  0  0  0  0  0  0
   14.7877   10.7250   10.7188 C   0  0  0  0  0  0  0  0  0  0  0  0
   14.9015   15.9311   14.1593 C   0  0  0  0  0  0  0  0  0  0  0  0
   15.9006   16.5014   13.4302 N   0  0  0  0  0  0  0  0  0  0  0  0
   14.1593   16.5893   14.8772 O   0  0  0  0  0  0  0  0  0  0  0  0
   14.8915   10.9597   13.1717 C   0  0  0  0  0  0  0  0  0  0  0  0
   14.8736   12.4120   13.5061 C   0  0  0  0  0  0  0  0  0  0  0  0
   14.8965   12.4787   14.9836 C   0  0  0  0  0  0  0  0  0  0  0  0
   14.9666   11.2519   15.4692 C   0  0  0  0  0  0  0  0  0  0  0  0
   14.9480   10.3383   14.3645 C   0  0  0  0  0  0  0  0  0  0  0  0
   14.8722   13.8333   15.3347 C   0  0  0  0  0  0  0  0  0  0  0  0
   14.8848   13.6134   13.0042 N   0  0  0  0  0  0  0  0  0  0  0  0
   14.8753   14.4487   14.1409 C   0  0  0  0  0  0  0  0  0  0  0  0
  4  2  1  0
  4  1  1  0
  4  3  2  0
  6  5  1  0
  7  5  2  0
  8  1  1  0
  8 12  2  0
  8  9  1  0
 10 11  2  0
 11 12  1  0
 13 15  2  0
 14 15  1  0
 10 13  1  0
  9 14  2  0
  9 10  1  0
 15  5  1  0
M  END
>  <generation_date>  (37) 
None

>  <inchikey>  (37) 
SFZFZUPXUOKJBE-UHFFFAOYSA-N

>  <ref_mols>  (37) 
cx0544a,cx0399a

>  <tags>  (37) 
['butcher: adenine', 'pure_merges', 'fragmenstein', 'select (HA) [batch1_adenine]', 'raw']

>  <ref_pdb>  (37) 
cx0300a

>  <alias>  (37) 
cx0544a-cx0399a

>  <submitter_name>  (37) 
None

>  <HIPPO ID>  (37) 
833

>  <original ID>  (37) 
cx0544a-cx0399a

>  <method>  (37) 
None

>  <ref_url>  (37) 
None

>  <submitter_email>  (37) 
None

>  <original SMILES>  (37) 
CC(=O)NC1=CC=C2C=C(C(N)=O)N=C21

$$$$
cx0544a-cx0316a
     RDKit          3D

 28 30  0  0  0  0  0  0  0  0999 V2000
   14.9400   10.0957   12.0240 N   0  0  0  0  0  0  0  0  0  0  0  0
   15.0513    8.9795    9.8541 C   0  0  0  0  0  0  0  0  0  0  0  0
   14.8852   11.3404   10.0593 O   0  0  0  0  0  0  0  0  0  0  0  0
   14.9353   10.2704   10.6486 C   0  0  0  0  0  0  0  0  0  0  0  0
   14.8637   15.8144   14.3149 C   0  0  0  0  0  0  0  0  0  0  0  0
   15.0274   14.7220   13.5100 N   0  0  0  0  0  0  0  0  0  0  0  0
   15.3360   16.9510   13.7204 N   0  0  0  0  0  0  0  0  0  0  0  0
   14.3580   15.8594   15.4252 O   0  0  0  0  0  0  0  0  0  0  0  0
   18.1537    4.7474   12.0799 O   0  0  0  0  0  0  0  0  0  0  0  0
   13.9548    8.0275   10.2433 C   0  0  0  0  0  0  0  0  0  0  0  0
   15.7230    3.5882   11.3558 C   0  0  0  0  0  0  0  0  0  0  0  0
   14.8542   11.0776   13.0337 C   0  0  0  0  0  0  0  0  0  0  0  0
   14.7513   12.4455   12.7916 C   0  0  0  0  0  0  0  0  0  0  0  0
   14.8517   13.3683   13.8487 C   0  0  0  0  0  0  0  0  0  0  0  0
   14.9318   12.9132   15.1611 C   0  0  0  0  0  0  0  0  0  0  0  0
   14.9735   11.5440   15.4128 C   0  0  0  0  0  0  0  0  0  0  0  0
   14.9437   10.6324   14.3568 C   0  0  0  0  0  0  0  0  0  0  0  0
   15.1748    6.0394   11.1383 N   0  0  0  0  0  0  0  0  0  0  0  0
   14.2913    6.6209   10.3650 C   0  0  0  0  0  0  0  0  0  0  0  0
   13.5220    5.7708    9.6433 O   0  0  0  0  0  0  0  0  0  0  0  0
   13.9778    4.5058    9.9403 N   0  0  0  0  0  0  0  0  0  0  0  0
   14.9258    4.7198   10.8598 C   0  0  0  0  0  0  0  0  0  0  0  0
   15.4796    3.1230   13.7644 C   0  0  0  0  0  0  0  0  0  0  0  0
   16.1876    3.7161   12.7366 N   0  0  0  0  0  0  0  0  0  0  0  0
   17.4306    4.2885   12.9549 C   0  0  0  0  0  0  0  0  0  0  0  0
   17.9069    4.3231   14.3629 C   0  0  0  0  0  0  0  0  0  0  0  0
   17.1836    3.7539   15.3330 C   0  0  0  0  0  0  0  0  0  0  0  0
   15.9354    3.1166   15.0210 C   0  0  0  0  0  0  0  0  0  0  0  0
  4  2  1  0
  4  1  1  0
  4  3  2  0
  6  5  1  0
  7  5  1  0
  8  5  2  0
 10  2  1  0
 12  1  1  0
 12 17  1  0
 12 13  2  0
 13 14  1  0
 14 15  2  0
 14  6  1  0
 15 16  1  0
 16 17  2  0
 18 19  2  0
 18 22  1  0
 19 10  1  0
 19 20  1  0
 20 21  1  0
 21 22  2  0
 22 11  1  0
 23 28  2  0
 23 24  1  0
 24 11  1  0
 24 25  1  0
 25 26  1  0
 25  9  2  0
 26 27  2  0
 27 28  1  0
M  END
>  <generation_date>  (38) 
None

>  <inchikey>  (38) 
TYBDSUPMDPIPBB-UHFFFAOYSA-N

>  <ref_mols>  (38) 
cx0544a,cx0316a

>  <tags>  (38) 
['butcher: adenine', 'pure_merges', 'fragmenstein', 'select (HA) [batch4_others]', 'butcher: oxyanion', 'raw']

>  <ref_pdb>  (38) 
cx0300a

>  <alias>  (38) 
cx0544a-cx0316a

>  <submitter_name>  (38) 
None

>  <HIPPO ID>  (38) 
834

>  <original ID>  (38) 
cx0544a-cx0316a

>  <method>  (38) 
None

>  <ref_url>  (38) 
None

>  <submitter_email>  (38) 
None

>  <original SMILES>  (38) 
NC(=O)Nc1cccc(NC(=O)CCc2nc(Cn3ccccc3=O)no2)c1

$$$$
cx1338a-cx1278a
     RDKit          3D

 15 16  0  0  0  0  0  0  0  0999 V2000
   14.4674   13.2113   11.6056 N   0  0  0  0  0  0  0  0  0  0  0  0
   14.5453    8.8092   17.1104 C   0  0  0  0  0  0  0  0  0  0  0  0
   14.3875    9.0692   15.7181 O   0  0  0  0  0  0  0  0  0  0  0  0
   14.8765   10.2573   15.3175 C   0  0  0  0  0  0  0  0  0  0  0  0
   15.2673   11.1581   16.0430 O   0  0  0  0  0  0  0  0  0  0  0  0
   14.5859   11.9138   12.0801 C   0  0  0  0  0  0  0  0  0  0  0  0
   14.7002   10.9596   11.1541 N   0  0  0  0  0  0  0  0  0  0  0  0
   14.8035    9.6907   11.5527 C   0  0  0  0  0  0  0  0  0  0  0  0
   14.8839    9.3131   12.9146 C   0  0  0  0  0  0  0  0  0  0  0  0
   14.8163   10.3788   13.8524 C   0  0  0  0  0  0  0  0  0  0  0  0
   14.6486   11.6868   13.4253 C   0  0  0  0  0  0  0  0  0  0  0  0
   14.9965    7.9250   13.2051 C   0  0  0  0  0  0  0  0  0  0  0  0
   14.9185    6.9626   12.2017 C   0  0  0  0  0  0  0  0  0  0  0  0
   14.7627    7.3601   10.8856 C   0  0  0  0  0  0  0  0  0  0  0  0
   14.7554    8.7150   10.5631 C   0  0  0  0  0  0  0  0  0  0  0  0
  3  2  1  0
  4  3  1  0
  5  4  2  0
  6  1  1  0
  6 11  2  0
  6  7  1  0
  7  8  2  0
  8 15  1  0
  8  9  1  0
  9 10  2  0
  9 12  1  0
 10 11  1  0
 12 13  2  0
 13 14  1  0
 14 15  2  0
  4 10  1  0
M  END
>  <generation_date>  (39) 
None

>  <inchikey>  (39) 
UOLQJDYEMFOZBJ-UHFFFAOYSA-N

>  <ref_mols>  (39) 
cx1338a,cx1278a

>  <tags>  (39) 
['butcher: adenine', 'pure_merges', 'fragmenstein', 'select (JA) [batch1_adenine]', 'select (HA) [batch1_adenine]', 'raw']

>  <ref_pdb>  (39) 
cx0300a

>  <alias>  (39) 
cx1338a-cx1278a

>  <submitter_name>  (39) 
None

>  <HIPPO ID>  (39) 
843

>  <original ID>  (39) 
cx1338a-cx1278a

>  <method>  (39) 
None

>  <ref_url>  (39) 
None

>  <submitter_email>  (39) 
None

>  <original SMILES>  (39) 
COC(=O)c1cc(N)nc2ccccc12

$$$$
cx1338a-cx0477a
     RDKit          3D

 14 15  0  0  0  0  0  0  0  0999 V2000
   14.4551   13.3172   13.4231 N   0  0  0  0  0  0  0  0  0  0  0  0
   14.6297    8.7470   15.2448 C   0  0  0  0  0  0  0  0  0  0  0  0
   15.9777    8.2903   15.7940 C   0  0  0  0  0  0  0  0  0  0  0  0
   16.6185    7.3843   14.9066 O   0  0  0  0  0  0  0  0  0  0  0  0
   14.6442   11.9487   13.2314 C   0  0  0  0  0  0  0  0  0  0  0  0
   14.7330   11.5520   11.9614 N   0  0  0  0  0  0  0  0  0  0  0  0
   14.8276   10.2426   11.7178 C   0  0  0  0  0  0  0  0  0  0  0  0
   14.8208    9.2527   12.7353 C   0  0  0  0  0  0  0  0  0  0  0  0
   14.7448    9.7016   14.0734 C   0  0  0  0  0  0  0  0  0  0  0  0
   14.6883   11.0809   14.3083 C   0  0  0  0  0  0  0  0  0  0  0  0
   14.8066    7.8864   12.3518 C   0  0  0  0  0  0  0  0  0  0  0  0
   14.7496    7.5176   11.0103 C   0  0  0  0  0  0  0  0  0  0  0  0
   14.7442    8.5063   10.0359 C   0  0  0  0  0  0  0  0  0  0  0  0
   14.8250    9.8495   10.3900 C   0  0  0  0  0  0  0  0  0  0  0  0
  3  2  1  0
  4  3  1  0
  5  1  1  0
  5 10  2  0
  5  6  1  0
  6  7  2  0
  7 14  1  0
  7  8  1  0
  8  9  2  0
  8 11  1  0
  9 10  1  0
 11 12  2  0
 12 13  1  0
 13 14  2  0
  2  9  1  0
M  END
>  <generation_date>  (40) 
None

>  <inchikey>  (40) 
JMOTWXFAFYAFBE-UHFFFAOYSA-N

>  <ref_mols>  (40) 
cx1338a,cx0477a

>  <tags>  (40) 
['butcher: adenine', 'pure_merges', 'fragmenstein', 'select (DF) [batch1_adenine]', 'raw']

>  <ref_pdb>  (40) 
cx0300a

>  <alias>  (40) 
cx1338a-cx0477a

>  <submitter_name>  (40) 
None

>  <HIPPO ID>  (40) 
849

>  <original ID>  (40) 
cx1338a-cx0477a

>  <method>  (40) 
None

>  <ref_url>  (40) 
None

>  <submitter_email>  (40) 
None

>  <original SMILES>  (40) 
Nc1cc(CCO)c2ccccc2n1

$$$$
cx1338a-cx0300a
     RDKit          3D

 24 25  0  0  0  0  0  0  0  0999 V2000
   13.6527   13.1773   11.3900 N   0  0  0  0  0  0  0  0  0  0  0  0
   15.9636    5.3121   14.7530 N   0  0  0  0  0  0  0  0  0  0  0  0
   14.9131    6.1436   15.0758 C   0  0  0  0  0  0  0  0  0  0  0  0
   13.8874    5.7275   15.6023 O   0  0  0  0  0  0  0  0  0  0  0  0
   18.4314    3.7466   11.6332 O   0  0  0  0  0  0  0  0  0  0  0  0
   14.7548   12.3231   11.7576 C   0  0  2  0  0  0  0  0  0  0  0  0
   14.7823   11.0351   11.1133 N   0  0  0  0  0  0  0  0  0  0  0  0
   14.8193    9.7271   11.5079 C   0  0  0  0  0  0  0  0  0  0  0  0
   14.9784    9.2894   12.8253 C   0  0  0  0  0  0  0  0  0  0  0  0
   13.9151   12.2165   14.2060 C   0  0  0  0  0  0  0  0  0  0  0  0
   15.0348   12.4549   13.2562 C   0  0  0  0  0  0  0  0  0  0  0  0
   14.9124    7.9452   13.2354 C   0  0  0  0  0  0  0  0  0  0  0  0
   14.6710    7.0014   12.2381 C   0  0  0  0  0  0  0  0  0  0  0  0
   14.5507    7.3860   10.9021 C   0  0  0  0  0  0  0  0  0  0  0  0
   14.6549    8.7284   10.5374 C   0  0  0  0  0  0  0  0  0  0  0  0
   17.1331    3.1757   15.0575 C   0  0  0  0  0  0  0  0  0  0  0  0
   18.1784    3.4940   13.9972 C   0  0  0  0  0  0  0  0  0  0  0  0
   17.6613    3.6300   12.5795 C   0  0  0  0  0  0  0  0  0  0  0  0
   16.3148    3.7243   12.3813 N   0  0  0  0  0  0  0  0  0  0  0  0
   15.3365    3.3822   13.3948 C   0  0  0  0  0  0  0  0  0  0  0  0
   15.8043    3.8618   14.7655 C   0  0  2  0  0  0  0  0  0  0  0  0
   14.4011    8.4912   15.7098 C   0  0  0  0  0  0  0  0  0  0  0  0
   15.1722    7.6042   14.7112 C   0  0  1  0  0  0  0  0  0  0  0  0
   15.4365    9.8282   16.4154 S   0  0  0  0  0  0  0  0  0  0  0  0
  3  2  1  0
  4  3  2  0
  6  1  1  1
  6 11  1  0
  6  7  1  0
  7  8  1  0
  8 15  2  0
  8  9  1  0
  9 12  2  0
 10 11  1  0
 12 13  1  0
 13 14  2  0
 14 15  1  0
 16 21  1  0
 16 17  1  0
 17 18  1  0
 18 19  1  0
 18  5  2  0
 19 20  1  0
 20 21  1  0
 21  2  1  6
 23 22  1  1
 22 24  1  0
 23  3  1  0
 12 23  1  0
M  END
>  <generation_date>  (41) 
None

>  <inchikey>  (41) 
JAHJLJNEYRGXQB-RBSFLKMASA-N

>  <ref_mols>  (41) 
cx1338a,cx0300a

>  <tags>  (41) 
['butcher: adenine', 'pure_merges', 'fragmenstein', 'select (HA) [batch4_others]', 'butcher: oxyanion', 'raw']

>  <ref_pdb>  (41) 
cx0300a

>  <alias>  (41) 
cx1338a-cx0300a

>  <submitter_name>  (41) 
None

>  <HIPPO ID>  (41) 
855

>  <original ID>  (41) 
cx1338a-cx0300a

>  <method>  (41) 
None

>  <ref_url>  (41) 
None

>  <submitter_email>  (41) 
None

>  <original SMILES>  (41) 
CC[C@H](N)Nc1cccc([C@@H](CS)C(=O)N[C@@H]2CCC(=O)NC2)c1

$$$$
cx1371a-cx0544a
     RDKit          3D

 20 21  0  0  0  0  0  0  0  0999 V2000
   13.1059   12.6220   11.7901 N   0  0  0  0  0  0  0  0  0  0  0  0
   14.2603   11.8279   12.0864 C   0  0  2  0  0  0  0  0  0  0  0  0
   14.4386   11.4189   10.6861 N   0  0  0  0  0  0  0  0  0  0  0  0
   15.1563    6.7240   13.0682 Cl  0  0  0  0  0  0  0  0  0  0  0  0
   14.9730    9.6752    9.0751 C   0  0  0  0  0  0  0  0  0  0  0  0
   15.1265   10.4103   10.3440 C   0  0  0  0  0  0  0  0  0  0  0  0
   14.7513   16.3297   14.1784 C   0  0  0  0  0  0  0  0  0  0  0  0
   14.9856   15.2946   13.3121 N   0  0  0  0  0  0  0  0  0  0  0  0
   14.9581   17.5415   13.5987 N   0  0  0  0  0  0  0  0  0  0  0  0
   14.4074   16.2427   15.3453 O   0  0  0  0  0  0  0  0  0  0  0  0
   14.3940   10.7147   13.2464 C   0  0  0  0  0  0  0  0  0  0  0  0
   14.5534    9.3438   12.8807 C   0  0  0  0  0  0  0  0  0  0  0  0
   14.9343    8.2986   13.7245 C   0  0  0  0  0  0  0  0  0  0  0  0
   15.1561    8.5470   15.0493 C   0  0  0  0  0  0  0  0  0  0  0  0
   14.9947    9.8476   15.4981 C   0  0  0  0  0  0  0  0  0  0  0  0
   14.6437   10.9400   14.6423 C   0  0  0  0  0  0  0  0  0  0  0  0
   15.1259   12.9524   12.5265 C   0  0  0  0  0  0  0  0  0  0  0  0
   14.7162   13.8976   13.6711 C   0  0  1  0  0  0  0  0  0  0  0  0
   15.3410   13.4394   14.9784 C   0  0  0  0  0  0  0  0  0  0  0  0
   14.5562   12.2343   15.4281 C   0  0  0  0  0  0  0  0  0  0  0  0
  2  1  1  6
  3  2  1  0
  6  5  1  0
  6  3  2  0
  8  7  1  0
  9  7  1  0
 10  7  2  0
 11  2  1  0
 11 16  2  0
 11 12  1  0
 12 13  2  0
 13 14  1  0
 13  4  1  0
 14 15  2  0
 15 16  1  0
 17 18  1  0
 18 19  1  0
 18  8  1  6
 19 20  1  0
 16 20  1  0
  2 17  1  0
M  END
>  <generation_date>  (42) 
None

>  <inchikey>  (42) 
LYGDWOKYSJFDGU-CYKWSWCBSA-N

>  <ref_mols>  (42) 
cx0544a,cx1371a

>  <tags>  (42) 
['butcher: adenine', 'pure_merges', 'fragmenstein', 'select (HA) [batch1_adenine]', 'raw']

>  <ref_pdb>  (42) 
cx0300a

>  <alias>  (42) 
cx1371a-cx0544a

>  <submitter_name>  (42) 
None

>  <HIPPO ID>  (42) 
864

>  <original ID>  (42) 
cx1371a-cx0544a

>  <method>  (42) 
None

>  <ref_url>  (42) 
None

>  <submitter_email>  (42) 
None

>  <original SMILES>  (42) 
C/C=N/[C@]1(N)C[C@H](NC(N)=O)CCc2ccc(Cl)cc21

$$$$
cx1371a-cx0404a
     RDKit          3D

 12 13  0  0  0  0  0  0  0  0999 V2000
   13.9060   12.8570   11.3131 N   0  0  0  0  0  0  0  0  0  0  0  0
   14.5796   11.6708   11.2775 C   0  0  0  0  0  0  0  0  0  0  0  0
   14.9479   11.1876   10.2137 O   0  0  0  0  0  0  0  0  0  0  0  0
   15.1202    7.3144   13.7398 C   0  0  0  0  0  0  0  0  0  0  0  0
   15.0086    7.0965   15.1641 O   0  0  0  0  0  0  0  0  0  0  0  0
   15.1855    8.3474   15.8721 C   0  0  0  0  0  0  0  0  0  0  0  0
   14.7385   10.9233   12.5457 C   0  0  0  0  0  0  0  0  0  0  0  0
   14.8607    9.5317   12.4402 C   0  0  0  0  0  0  0  0  0  0  0  0
   14.9816    8.7810   13.5913 C   0  0  0  0  0  0  0  0  0  0  0  0
   15.0102    9.3899   14.8319 C   0  0  0  0  0  0  0  0  0  0  0  0
   14.9102   10.7670   14.9623 C   0  0  0  0  0  0  0  0  0  0  0  0
   14.7547   11.5410   13.8063 C   0  0  0  0  0  0  0  0  0  0  0  0
  2  1  1  0
  3  2  2  0
  6  5  1  0
  5  4  1  0
  7  2  1  0
  7 12  1  0
  7  8  2  0
  8  9  1  0
  9 10  2  0
  9  4  1  0
 10 11  1  0
 11 12  2  0
  6 10  1  0
M  END
>  <generation_date>  (43) 
None

>  <inchikey>  (43) 
ZFYCTASOLWEMCR-UHFFFAOYSA-N

>  <ref_mols>  (43) 
cx1371a,cx0404a

>  <tags>  (43) 
['butcher: adenine', 'pure_merges', 'fragmenstein', 'select (HA) [batch1_adenine]', 'raw']

>  <ref_pdb>  (43) 
cx0300a

>  <alias>  (43) 
cx1371a-cx0404a

>  <submitter_name>  (43) 
None

>  <HIPPO ID>  (43) 
873

>  <original ID>  (43) 
cx1371a-cx0404a

>  <method>  (43) 
None

>  <ref_url>  (43) 
None

>  <submitter_email>  (43) 
None

>  <original SMILES>  (43) 
NC(=O)c1ccc2c(c1)COC2

$$$$
cx1371a-cx1402a
     RDKit          3D

 13 15  0  0  0  0  0  0  0  0999 V2000
   15.1653    6.8525   13.1581 Cl  0  0  0  0  0  0  0  0  0  0  0  0
   14.7507   10.7220   12.4241 C   0  0  0  0  0  0  0  0  0  0  0  0
   14.8678    9.3672   12.1533 C   0  0  0  0  0  0  0  0  0  0  0  0
   14.9661    8.5578   13.3142 C   0  0  0  0  0  0  0  0  0  0  0  0
   14.9391    9.1402   14.6076 C   0  0  0  0  0  0  0  0  0  0  0  0
   14.8005   10.5341   14.7826 C   0  0  0  0  0  0  0  0  0  0  0  0
   14.6914   11.3035   13.6468 C   0  0  0  0  0  0  0  0  0  0  0  0
   14.6815   11.4081   10.1809 N   0  0  0  0  0  0  0  0  0  0  0  0
   14.6439   11.6888   11.4844 C   0  0  0  0  0  0  0  0  0  0  0  0
   14.8662    9.0445   10.7694 C   0  0  0  0  0  0  0  0  0  0  0  0
   14.7801   10.0905    9.8458 C   0  0  0  0  0  0  0  0  0  0  0  0
   14.4984   12.7226   13.3465 C   0  0  0  0  0  0  0  0  0  0  0  0
   14.4782   12.9671   12.0637 N   0  0  0  0  0  0  0  0  0  0  0  0
  2  7  2  0
  2  3  1  0
  3  4  2  0
  4  5  1  0
  4  1  1  0
  5  6  2  0
  6  7  1  0
  8 11  1  0
  8  9  2  0
  9 13  1  0
 10 11  2  0
 12 13  2  0
  2  9  1  0
  3 10  1  0
  7 12  1  0
M  END
>  <generation_date>  (44) 
None

>  <inchikey>  (44) 
ZYGPPXFTVXWIOA-UHFFFAOYSA-N

>  <ref_mols>  (44) 
cx1371a,cx1402a

>  <tags>  (44) 
['butcher: adenine', 'pure_merges', 'fragmenstein', 'select (DF) [batch1_adenine]', 'raw']

>  <ref_pdb>  (44) 
cx0300a

>  <alias>  (44) 
cx1371a-cx1402a

>  <submitter_name>  (44) 
None

>  <HIPPO ID>  (44) 
886

>  <original ID>  (44) 
cx1371a-cx1402a

>  <method>  (44) 
None

>  <ref_url>  (44) 
None

>  <submitter_email>  (44) 
None

>  <original SMILES>  (44) 
Clc1ccc2c3c(nccc13)N=C2

$$$$
cx1371a-cx0300a
     RDKit          3D

 20 21  0  0  0  0  0  0  0  0999 V2000
   13.9231   12.8710   12.4733 N   0  0  0  0  0  0  0  0  0  0  0  0
   14.5407   11.7901   11.9157 C   0  0  0  0  0  0  0  0  0  0  0  0
   14.7719   11.7517   10.7150 O   0  0  0  0  0  0  0  0  0  0  0  0
   14.9160    6.7653   11.7560 Cl  0  0  0  0  0  0  0  0  0  0  0  0
   15.7782    5.8370   14.3807 N   0  0  0  0  0  0  0  0  0  0  0  0
   15.0046    6.8327   14.9352 C   0  0  0  0  0  0  0  0  0  0  0  0
   14.3940    6.6928   15.9876 O   0  0  0  0  0  0  0  0  0  0  0  0
   18.4158    3.6963   11.7786 O   0  0  0  0  0  0  0  0  0  0  0  0
   14.7640   10.5951   12.7707 C   0  0  0  0  0  0  0  0  0  0  0  0
   14.8412    9.3805   12.0865 C   0  0  0  0  0  0  0  0  0  0  0  0
   14.9099    8.1619   12.7672 C   0  0  0  0  0  0  0  0  0  0  0  0
   14.9450    8.1275   14.1659 C   0  0  0  0  0  0  0  0  0  0  0  0
   14.8753    9.3539   14.8597 C   0  0  0  0  0  0  0  0  0  0  0  0
   14.7896   10.5840   14.1677 C   0  0  0  0  0  0  0  0  0  0  0  0
   16.9721    3.8449   15.1979 C   0  0  0  0  0  0  0  0  0  0  0  0
   18.0603    3.9429   14.1333 C   0  0  0  0  0  0  0  0  0  0  0  0
   17.6073    3.7563   12.6989 C   0  0  0  0  0  0  0  0  0  0  0  0
   16.2694    3.7584   12.4384 N   0  0  0  0  0  0  0  0  0  0  0  0
   15.2494    3.6288   13.4597 C   0  0  0  0  0  0  0  0  0  0  0  0
   15.6424    4.4169   14.7155 C   0  0  2  0  0  0  0  0  0  0  0  0
  2  1  1  0
  3  2  2  0
  6  5  1  0
  7  6  2  0
  9  2  1  0
  9 14  2  0
  9 10  1  0
 10 11  2  0
 11 12  1  0
 11  4  1  0
 12 13  2  0
 13 14  1  0
 15 20  1  0
 15 16  1  0
 16 17  1  0
 17 18  1  0
 17  8  2  0
 18 19  1  0
 19 20  1  0
 20  5  1  6
  6 12  1  0
M  END
>  <generation_date>  (45) 
None

>  <inchikey>  (45) 
SMVDAYWKXWVCAN-MRVPVSSYSA-N

>  <ref_mols>  (45) 
cx1371a,cx0300a

>  <tags>  (45) 
['butcher: adenine', 'select (DF) [batch4_others]', 'pure_merges', 'fragmenstein', 'select (HA) [batch4_others]', 'butcher: oxyanion', 'raw']

>  <ref_pdb>  (45) 
cx0300a

>  <alias>  (45) 
cx1371a-cx0300a

>  <submitter_name>  (45) 
None

>  <HIPPO ID>  (45) 
890

>  <original ID>  (45) 
cx1371a-cx0300a

>  <method>  (45) 
None

>  <ref_url>  (45) 
None

>  <submitter_email>  (45) 
None

>  <original SMILES>  (45) 
NC(=O)c1ccc(C(=O)N[C@@H]2CCC(=O)NC2)c(Cl)c1

$$$$
cx1371a-cx1406a
     RDKit          3D

 11 12  0  0  0  0  0  0  0  0999 V2000
   14.8407   12.9743   11.8074 N   0  0  0  0  0  0  0  0  0  0  0  0
   14.7098    8.4827   11.6815 N   0  0  0  0  0  0  0  0  0  0  0  0
   14.7263   10.7125   12.7312 C   0  0  0  0  0  0  0  0  0  0  0  0
   14.8495    9.3727   12.7187 C   0  0  0  0  0  0  0  0  0  0  0  0
   15.0181    8.8220   14.1113 C   0  0  0  0  0  0  0  0  0  0  0  0
   15.3076   10.0505   14.9539 C   0  0  0  0  0  0  0  0  0  0  0  0
   14.8245   11.2379   14.1380 C   0  0  0  0  0  0  0  0  0  0  0  0
   14.9284    8.7282   10.2609 C   0  0  0  0  0  0  0  0  0  0  0  0
   14.5090   10.0807    9.6706 C   0  0  0  0  0  0  0  0  0  0  0  0
   14.9405   11.3140   10.3190 N   0  0  0  0  0  0  0  0  0  0  0  0
   14.3640   11.6259   11.5953 C   0  0  2  0  0  0  0  0  0  0  0  0
  3  7  1  0
  4  5  1  0
  4  2  1  0
  5  6  1  0
  6  7  1  0
  8  9  1  0
  9 10  1  0
 10 11  1  0
  3 11  1  0
 11  1  1  1
  2  8  1  0
  3  4  2  0
M  END
>  <generation_date>  (46) 
None

>  <inchikey>  (46) 
JMUAYQTUOQUXMA-QMMMGPOBSA-N

>  <ref_mols>  (46) 
cx1371a,cx1406a

>  <tags>  (46) 
['butcher: adenine', 'pure_merges', 'fragmenstein', 'select (DF) [batch1_adenine]', 'raw']

>  <ref_pdb>  (46) 
cx0300a

>  <alias>  (46) 
cx1371a-cx1406a

>  <submitter_name>  (46) 
None

>  <HIPPO ID>  (46) 
892

>  <original ID>  (46) 
cx1371a-cx1406a

>  <method>  (46) 
None

>  <ref_url>  (46) 
None

>  <submitter_email>  (46) 
None

>  <original SMILES>  (46) 
N[C@H]1NCCNC2=C1CCC2

$$$$
cx1371a-cx1445a
     RDKit          3D

 11 11  0  0  0  0  0  0  0  0999 V2000
   13.9453   12.7743   11.2229 N   0  0  0  0  0  0  0  0  0  0  0  0
   14.6316   11.5938   11.1259 C   0  0  0  0  0  0  0  0  0  0  0  0
   15.0658   11.2322   10.0409 O   0  0  0  0  0  0  0  0  0  0  0  0
   15.1303    6.8635   13.2337 Cl  0  0  0  0  0  0  0  0  0  0  0  0
   14.8110    8.7549   11.0012 O   0  0  0  0  0  0  0  0  0  0  0  0
   14.7573   10.7609   12.3488 C   0  0  0  0  0  0  0  0  0  0  0  0
   14.8548    9.3652   12.2366 C   0  0  0  0  0  0  0  0  0  0  0  0
   14.9759    8.5756   13.3866 C   0  0  0  0  0  0  0  0  0  0  0  0
   14.9967    9.1651   14.6486 C   0  0  0  0  0  0  0  0  0  0  0  0
   14.8951   10.5528   14.7655 C   0  0  0  0  0  0  0  0  0  0  0  0
   14.7683   11.3487   13.6223 C   0  0  0  0  0  0  0  0  0  0  0  0
  2  1  1  0
  3  2  2  0
  6  2  1  0
  6 11  2  0
  6  7  1  0
  7  8  2  0
  8  9  1  0
  8  4  1  0
  9 10  2  0
 10 11  1  0
  5  7  1  0
M  END
>  <generation_date>  (47) 
None

>  <inchikey>  (47) 
SNMUYHVTHLCYQT-UHFFFAOYSA-N

>  <ref_mols>  (47) 
cx1371a,cx1445a

>  <tags>  (47) 
['butcher: adenine', 'pure_merges', 'fragmenstein', 'select (HA) [batch1_adenine]', 'raw']

>  <ref_pdb>  (47) 
cx0300a

>  <alias>  (47) 
cx1371a-cx1445a

>  <submitter_name>  (47) 
None

>  <HIPPO ID>  (47) 
895

>  <original ID>  (47) 
cx1371a-cx1445a

>  <method>  (47) 
None

>  <ref_url>  (47) 
None

>  <submitter_email>  (47) 
None

>  <original SMILES>  (47) 
NC(=O)c1cccc(Cl)c1O

$$$$
cx0620a-cx0398a
     RDKit          3D

 21 23  0  0  0  0  0  0  0  0999 V2000
   18.1403    4.2536   12.0017 N   0  0  0  0  0  0  0  0  0  0  0  0
   17.8821    3.9744   13.0970 C   0  0  0  0  0  0  0  0  0  0  0  0
   17.0707    2.4670   18.5915 C   0  0  0  0  0  0  0  0  0  0  0  0
   15.1863    3.0774   14.1118 N   0  0  0  0  0  0  0  0  0  0  0  0
   14.8972    4.1156   13.1319 C   0  0  0  0  0  0  0  0  0  0  0  0
   15.1896    1.9682   16.5583 O   0  0  0  0  0  0  0  0  0  0  0  0
   17.5950    3.6753   14.4657 C   0  0  0  0  0  0  0  0  0  0  0  0
   18.6047    3.8935   15.4196 C   0  0  0  0  0  0  0  0  0  0  0  0
   18.4411    3.5191   16.7547 C   0  0  0  0  0  0  0  0  0  0  0  0
   17.2825    2.8592   17.1523 C   0  0  0  0  0  0  0  0  0  0  0  0
   16.2959    2.6712   16.1895 C   0  0  0  0  0  0  0  0  0  0  0  0
   16.3606    3.1741   14.8776 C   0  0  0  0  0  0  0  0  0  0  0  0
   18.6754   -1.7458   17.8123 C   0  0  0  0  0  0  0  0  0  0  0  0
   17.8571   -2.7174   18.3869 C   0  0  0  0  0  0  0  0  0  0  0  0
   16.6474   -2.3672   18.9949 C   0  0  0  0  0  0  0  0  0  0  0  0
   16.2763   -1.0167   19.0406 C   0  0  0  0  0  0  0  0  0  0  0  0
   17.1346   -0.0606   18.5023 C   0  0  0  0  0  0  0  0  0  0  0  0
   18.3343   -0.3913   17.8627 C   0  0  0  0  0  0  0  0  0  0  0  0
   15.3336    0.8573   19.4158 C   0  0  0  0  0  0  0  0  0  0  0  0
   16.5207    1.1332   18.7895 N   0  0  0  0  0  0  0  0  0  0  0  0
   15.1582   -0.4330   19.5855 N   0  0  0  0  0  0  0  0  0  0  0  0
  2  1  3  0
  5  4  1  0
  7  2  1  0
  7 12  2  0
  7  8  1  0
  8  9  2  0
  9 10  1  0
 10 11  2  0
 10  3  1  0
 11 12  1  0
 13 18  2  0
 13 14  1  0
 14 15  2  0
 15 16  1  0
 16 17  2  0
 16 21  1  0
 17 18  1  0
 17 20  1  0
 19 20  1  0
 19 21  2  0
 20  3  1  0
  4 12  1  0
  6 11  1  0
M  END
>  <generation_date>  (48) 
None

>  <inchikey>  (48) 
OWKLKRHPZVUBLO-UHFFFAOYSA-N

>  <ref_mols>  (48) 
cx0620a,cx0398a

>  <tags>  (48) 
['pure_merges', 'fragmenstein', 'butcher: oxyanion', 'select (HA) [batch3_oxyanion]', 'select (JA) [batch3_oxyanion]', 'raw']

>  <ref_pdb>  (48) 
cx0300a

>  <alias>  (48) 
cx0620a-cx0398a

>  <submitter_name>  (48) 
None

>  <HIPPO ID>  (48) 
898

>  <original ID>  (48) 
cx0620a-cx0398a

>  <method>  (48) 
None

>  <ref_url>  (48) 
None

>  <submitter_email>  (48) 
None

>  <original SMILES>  (48) 
CNc1c(C#N)ccc(Cn2cnc3ccccc32)c1O

$$$$
cx0522a-cx0317a
     RDKit          3D

 23 24  0  0  0  0  0  0  0  0999 V2000
   20.1501    1.2638   15.7427 C   0  0  0  0  0  0  0  0  0  0  0  0
   18.0584    1.2388   16.7990 O   0  0  0  0  0  0  0  0  0  0  0  0
   19.1891    0.4166   16.5380 C   0  0  0  0  0  0  0  0  0  0  0  0
   15.6911    2.7292   17.3467 C   0  0  0  0  0  0  0  0  0  0  0  0
   15.5696    4.2898   15.4127 C   0  0  0  0  0  0  0  0  0  0  0  0
   15.8162    1.8459   14.9972 C   0  0  0  0  0  0  0  0  0  0  0  0
   15.7023    2.9311   15.9655 N   0  0  0  0  0  0  0  0  0  0  0  0
   15.3609    3.6087   18.1412 O   0  0  0  0  0  0  0  0  0  0  0  0
   18.1032    4.1316   11.4047 O   0  0  0  0  0  0  0  0  0  0  0  0
   15.3240    5.0308   12.1137 C   0  0  0  0  0  0  0  0  0  0  0  0
   14.9987    4.1236   10.9236 C   0  0  0  0  0  0  0  0  0  0  0  0
   14.0877    4.8265   10.0773 O   0  0  0  0  0  0  0  0  0  0  0  0
   17.2891   -0.6521   17.9623 N   0  0  0  0  0  0  0  0  0  0  0  0
   16.3444   -1.1977   18.7543 C   0  0  0  0  0  0  0  0  0  0  0  0
   15.2288   -0.5085   19.1964 C   0  0  0  0  0  0  0  0  0  0  0  0
   15.0478    0.8045   18.7719 C   0  0  0  0  0  0  0  0  0  0  0  0
   15.9671    1.3768   17.8937 C   0  0  0  0  0  0  0  0  0  0  0  0
   17.0934    0.6315   17.5661 C   0  0  0  0  0  0  0  0  0  0  0  0
   17.8865    4.1663   14.6832 N   0  0  0  0  0  0  0  0  0  0  0  0
   16.5923    4.4303   14.3236 C   0  0  0  0  0  0  0  0  0  0  0  0
   16.4366    4.6367   13.0125 C   0  0  0  0  0  0  0  0  0  0  0  0
   17.7813    4.2707   12.5668 C   0  0  0  0  0  0  0  0  0  0  0  0
   18.5832    4.0641   13.6574 N   0  0  0  0  0  0  0  0  0  0  0  0
  3  1  1  0
  3  2  1  0
  7  6  1  0
  7  5  1  0
  7  4  1  0
  8  4  2  0
 11 10  1  0
 12 11  1  0
 13 18  2  0
 13 14  1  0
 14 15  2  0
 15 16  1  0
 16 17  2  0
 17 18  1  0
 17  4  1  0
 18  2  1  0
 19 20  1  0
 19 23  2  0
 20 21  2  0
 21 22  1  0
 21 10  1  0
 22  9  2  0
 22 23  1  0
  5 20  1  0
M  END
>  <generation_date>  (49) 
None

>  <inchikey>  (49) 
GFMRAFWNPGPAQG-UHFFFAOYSA-N

>  <ref_mols>  (49) 
cx0522a,cx0317a

>  <tags>  (49) 
['pure_merges', 'fragmenstein', 'butcher: oxyanion', 'select (HA) [batch3_oxyanion]', 'raw']

>  <ref_pdb>  (49) 
cx0300a

>  <alias>  (49) 
cx0522a-cx0317a

>  <submitter_name>  (49) 
None

>  <HIPPO ID>  (49) 
914

>  <original ID>  (49) 
cx0522a-cx0317a

>  <method>  (49) 
None

>  <ref_url>  (49) 
None

>  <submitter_email>  (49) 
None

>  <original SMILES>  (49) 
CCOc1ncccc1C(=O)N(C)CC1=C(CCO)C(=O)N=N1

$$$$
cx0522a-cx0305a
     RDKit          3D

 16 16  0  0  0  0  0  0  0  0999 V2000
   19.9834    2.4185   16.5862 C   0  0  0  0  0  0  0  0  0  0  0  0
   18.1676    0.9604   16.1979 O   0  0  0  0  0  0  0  0  0  0  0  0
   19.4452    1.0268   16.8272 C   0  0  0  0  0  0  0  0  0  0  0  0
   16.0480    2.7583   16.9875 C   0  0  0  0  0  0  0  0  0  0  0  0
   16.1201    4.7779   15.5859 C   0  0  0  0  0  0  0  0  0  0  0  0
   16.7760    2.6784   14.5618 C   0  0  0  0  0  0  0  0  0  0  0  0
   15.8828    3.2953   15.5718 N   0  0  0  0  0  4  0  0  0  0  0  0
   16.0089    3.5711   17.9153 O   0  0  0  0  0  0  0  0  0  0  0  0
   14.6017    3.0914   15.1339 O   0  0  0  0  0  1  0  0  0  0  0  0
   18.2827   -1.8227   17.0182 C   0  0  0  0  0  0  0  0  0  0  0  0
   17.2134   -0.8606   17.4520 C   0  0  0  0  0  0  0  0  0  0  0  0
   16.2365   -1.2964   18.3569 C   0  0  0  0  0  0  0  0  0  0  0  0
   15.2426   -0.4278   18.7987 C   0  0  0  0  0  0  0  0  0  0  0  0
   15.2000    0.8798   18.3199 C   0  0  0  0  0  0  0  0  0  0  0  0
   16.1348    1.3287   17.3758 C   0  0  0  0  0  0  0  0  0  0  0  0
   17.1837    0.4773   17.0107 C   0  0  0  0  0  0  0  0  0  0  0  0
  3  1  1  0
  3  2  1  0
  7  6  1  0
  7  5  1  0
  7  4  1  0
  8  4  2  0
  9  7  1  0
 11 16  2  0
 11 12  1  0
 12 13  2  0
 13 14  1  0
 14 15  2  0
 15 16  1  0
 15  4  1  0
 16  2  1  0
 10 11  1  0
M  CHG  2   7   1   9  -1
M  END
>  <generation_date>  (50) 
None

>  <inchikey>  (50) 
BQWBETSFXSQZSO-UHFFFAOYSA-N

>  <ref_mols>  (50) 
cx0522a,cx0305a

>  <tags>  (50) 
['pure_merges', 'fragmenstein', 'butcher: oxyanion', 'select (HA) [batch3_oxyanion]', 'raw']

>  <ref_pdb>  (50) 
cx0300a

>  <alias>  (50) 
cx0522a-cx0305a

>  <submitter_name>  (50) 
None

>  <HIPPO ID>  (50) 
918

>  <original ID>  (50) 
cx0522a-cx0305a

>  <method>  (50) 
None

>  <ref_url>  (50) 
None

>  <submitter_email>  (50) 
None

>  <original SMILES>  (50) 
CCOc1c(C)cccc1C(=O)[N+](C)(C)[O-]

$$$$
cx0522a-cx1118a
     RDKit          3D

 21 22  0  0  0  0  0  0  0  0999 V2000
   20.2223    1.2253   15.9211 C   0  0  0  0  0  0  0  0  0  0  0  0
   17.9790    1.1951   16.7295 O   0  0  0  0  0  0  0  0  0  0  0  0
   19.1460    0.3842   16.5652 C   0  0  0  0  0  0  0  0  0  0  0  0
   15.7363    2.7564   17.7751 C   0  0  0  0  0  0  0  0  0  0  0  0
   15.6233    4.8237   16.5043 C   0  0  0  0  0  0  0  0  0  0  0  0
   15.5173    2.6683   15.2923 C   0  0  0  0  0  0  0  0  0  0  0  0
   15.8256    3.3768   16.5282 N   0  0  0  0  0  0  0  0  0  0  0  0
   15.4150    3.3883   18.7836 O   0  0  0  0  0  0  0  0  0  0  0  0
   17.1234   -0.7825   17.6391 N   0  0  0  0  0  0  0  0  0  0  0  0
   16.2109   -1.3913   18.4190 C   0  0  0  0  0  0  0  0  0  0  0  0
   15.1672   -0.7225   19.0249 C   0  0  0  0  0  0  0  0  0  0  0  0
   15.0279    0.6383   18.7879 C   0  0  0  0  0  0  0  0  0  0  0  0
   15.9283    1.2989   17.9468 C   0  0  0  0  0  0  0  0  0  0  0  0
   16.9886    0.5559   17.4406 C   0  0  0  0  0  0  0  0  0  0  0  0
   18.6354    4.1984   11.0836 O   0  0  0  0  0  0  0  0  0  0  0  0
   18.4676    3.6359   13.2306 N   0  0  0  0  0  0  0  0  0  0  0  0
   17.6755    3.2463   14.2293 C   0  0  0  0  0  0  0  0  0  0  0  0
   16.2950    3.1599   14.1296 C   0  0  0  0  0  0  0  0  0  0  0  0
   15.6748    3.5416   12.9402 C   0  0  0  0  0  0  0  0  0  0  0  0
   16.4632    3.9594   11.8945 C   0  0  0  0  0  0  0  0  0  0  0  0
   17.8225    3.9445   12.1075 C   0  0  0  0  0  0  0  0  0  0  0  0
  3  1  1  0
  3  2  1  0
  7  6  1  0
  7  5  1  0
  7  4  1  0
  8  4  2  0
  9 14  2  0
  9 10  1  0
 10 11  2  0
 11 12  1  0
 12 13  2  0
 13 14  1  0
 13  4  1  0
 14  2  1  0
 16 21  2  0
 16 17  1  0
 17 18  2  0
 18 19  1  0
 19 20  2  0
 20 21  1  0
 21 15  1  0
  6 18  1  0
M  END
>  <generation_date>  (51) 
None

>  <inchikey>  (51) 
FCGOSHSMTQLVEX-UHFFFAOYSA-N

>  <ref_mols>  (51) 
cx0522a,cx1118a

>  <tags>  (51) 
['pure_merges', 'fragmenstein', 'butcher: oxyanion', 'select (HA) [batch3_oxyanion]', 'raw']

>  <ref_pdb>  (51) 
cx0300a

>  <alias>  (51) 
cx0522a-cx1118a

>  <submitter_name>  (51) 
None

>  <HIPPO ID>  (51) 
919

>  <original ID>  (51) 
cx0522a-cx1118a

>  <method>  (51) 
None

>  <ref_url>  (51) 
None

>  <submitter_email>  (51) 
None

>  <original SMILES>  (51) 
CCOc1ncccc1C(=O)N(C)Cc1ccc(O)nc1

$$$$
cx0522a-cx1135a
     RDKit          3D

 20 21  0  0  0  0  0  0  0  0999 V2000
   20.4151    1.0996   15.9922 C   0  0  0  0  0  0  0  0  0  0  0  0
   18.1670    1.1424   16.7041 O   0  0  0  0  0  0  0  0  0  0  0  0
   19.2996    0.2795   16.5914 C   0  0  0  0  0  0  0  0  0  0  0  0
   15.8673    2.7853   17.3608 C   0  0  0  0  0  0  0  0  0  0  0  0
   16.1329    4.7938   16.0338 C   0  0  0  0  0  0  0  0  0  0  0  0
   16.1183    3.3402   16.0915 N   0  0  0  0  0  0  0  0  0  0  0  0
   15.4669    3.4843   18.2976 O   0  0  0  0  0  0  0  0  0  0  0  0
   18.1179    4.5129   11.8442 O   0  0  0  0  0  0  0  0  0  0  0  0
   17.1933   -0.7734   17.6291 N   0  0  0  0  0  0  0  0  0  0  0  0
   16.2168   -1.3113   18.3830 C   0  0  0  0  0  0  0  0  0  0  0  0
   15.1511   -0.5823   18.8681 C   0  0  0  0  0  0  0  0  0  0  0  0
   15.0541    0.7587   18.5111 C   0  0  0  0  0  0  0  0  0  0  0  0
   16.0056    1.3389   17.6642 C   0  0  0  0  0  0  0  0  0  0  0  0
   17.0904    0.5464   17.3187 C   0  0  0  0  0  0  0  0  0  0  0  0
   17.3108    2.2200   14.3498 N   0  0  0  0  0  0  0  0  0  0  0  0
   18.0236    3.1961   13.6592 N   0  0  0  0  0  0  0  0  0  0  0  0
   17.4302    3.9783   12.7079 C   0  0  0  0  0  0  0  0  0  0  0  0
   15.9570    4.2562   12.8497 C   0  0  0  0  0  0  0  0  0  0  0  0
   15.1974    3.2508   13.7049 C   0  0  0  0  0  0  0  0  0  0  0  0
   15.9961    2.5958   14.8357 C   0  0  2  0  0  0  0  0  0  0  0  0
  3  1  1  0
  3  2  1  0
  6  5  1  0
  6  4  1  0
  7  4  2  0
  9 14  2  0
  9 10  1  0
 10 11  2  0
 11 12  1  0
 12 13  2  0
 13 14  1  0
 13  4  1  0
 14  2  1  0
 15 20  1  0
 15 16  1  0
 16 17  1  0
 17  8  2  0
 17 18  1  0
 18 19  1  0
 19 20  1  0
 20  6  1  1
M  END
>  <generation_date>  (52) 
None

>  <inchikey>  (52) 
CTECJTBKOFPTMY-JTQLQIEISA-N

>  <ref_mols>  (52) 
cx0522a,cx1135a

>  <tags>  (52) 
['pure_merges', 'fragmenstein', 'butcher: oxyanion', 'select (HA) [batch3_oxyanion]', 'select (JA) [batch3_oxyanion]', 'raw']

>  <ref_pdb>  (52) 
cx0300a

>  <alias>  (52) 
cx0522a-cx1135a

>  <submitter_name>  (52) 
None

>  <HIPPO ID>  (52) 
928

>  <original ID>  (52) 
cx0522a-cx1135a

>  <method>  (52) 
None

>  <ref_url>  (52) 
None

>  <submitter_email>  (52) 
None

>  <original SMILES>  (52) 
CCOc1ncccc1C(=O)N(C)[C@H]1CCC(=O)NN1

$$$$
cx0522a-cx0294a
     RDKit          3D

 17 17  0  0  0  0  0  0  0  0999 V2000
   15.6830    3.2646   17.5203 C   0  0  0  0  0  0  0  0  0  0  0  0
   15.0637    4.5064   15.3811 C   0  0  0  0  0  0  0  0  0  0  0  0
   16.5040    2.4493   15.3180 C   0  0  0  0  0  0  0  0  0  0  0  0
   16.1218    3.6990   16.1141 C   0  0  2  0  0  0  0  0  0  0  0  0
   14.8524    3.8928   18.1842 O   0  0  0  0  0  0  0  0  0  0  0  0
   18.0663   -2.6230   17.8194 N   0  0  0  0  0  0  0  0  0  0  0  0
   17.2287    4.5067   16.1826 F   0  0  0  0  0  0  0  0  0  0  0  0
   17.0555   -1.6152   17.6735 N   0  0  0  0  0  0  0  0  0  0  0  0
   16.7700   -1.0986   19.0121 C   0  0  0  0  0  0  0  0  0  0  0  0
   15.4887   -0.2815   19.0622 C   0  0  0  0  0  0  0  0  0  0  0  0
   15.3390    0.8408   18.0389 C   0  0  0  0  0  0  0  0  0  0  0  0
   16.3231    2.0150   18.1146 C   0  0  1  0  0  0  0  0  0  0  0  0
   17.6629    1.8391   17.4108 C   0  0  0  0  0  0  0  0  0  0  0  0
   17.5639    1.6439   15.9532 N   0  0  0  0  0  0  0  0  0  0  0  0
   18.8654    1.9027   15.3038 C   0  0  0  0  0  0  0  0  0  0  0  0
   20.0340    1.0719   15.8718 C   0  0  0  0  0  0  0  0  0  0  0  0
   19.6835   -0.3163   16.1433 N   0  0  0  0  0  0  0  0  0  0  0  0
  4  3  1  0
  4  2  1  6
  4  1  1  0
  5  1  2  0
  7  4  1  0
  8  9  1  0
  9 10  1  0
 10 11  1  0
 12 11  1  6
 12 13  1  0
 12  1  1  0
 14 15  1  0
 15 16  1  0
 16 17  1  0
 13 14  1  0
  8  6  1  0
  3 14  1  0
M  END
>  <generation_date>  (53) 
None

>  <inchikey>  (53) 
NYMFCWGXQSAFPA-ONGXEEELSA-N

>  <ref_mols>  (53) 
cx0522a,cx0294a

>  <tags>  (53) 
['pure_merges', 'fragmenstein', 'butcher: oxyanion', 'select (HA) [batch3_oxyanion]', 'raw']

>  <ref_pdb>  (53) 
cx0300a

>  <alias>  (53) 
cx0522a-cx0294a

>  <submitter_name>  (53) 
None

>  <HIPPO ID>  (53) 
930

>  <original ID>  (53) 
cx0522a-cx0294a

>  <method>  (53) 
None

>  <ref_url>  (53) 
None

>  <submitter_email>  (53) 
None

>  <original SMILES>  (53) 
C[C@]1(F)CN(CCN)C[C@H](CCCNN)C1=O

$$$$
cx0522a-cx0300a
     RDKit          3D

 29 32  0  0  0  0  0  0  0  0999 V2000
   20.1359    1.3379   15.9150 C   0  0  0  0  0  0  0  0  0  0  0  0
   18.1184    1.4489   17.1542 O   0  0  0  0  0  0  0  0  0  0  0  0
   19.1031    0.5364   16.6672 C   0  0  0  0  0  0  0  0  0  0  0  0
   15.8927    3.0581   18.0880 C   0  0  0  0  0  0  0  0  0  0  0  0
   15.4601    4.8905   16.5200 C   0  0  0  0  0  0  0  0  0  0  0  0
   15.5143    2.5331   15.7373 C   0  0  0  0  0  0  0  0  0  0  0  0
   15.6482    3.5113   16.7785 N   0  0  0  0  0  0  0  0  0  0  0  0
   15.8214    3.7969   19.0697 O   0  0  0  0  0  0  0  0  0  0  0  0
   14.6525    4.9086   14.1796 N   0  0  0  0  0  0  0  0  0  0  0  0
   15.0578    5.5291   15.3827 C   0  0  0  0  0  0  0  0  0  0  0  0
   18.9411    3.9836   11.2213 O   0  0  0  0  0  0  0  0  0  0  0  0
   17.1833   -0.5187   18.0272 N   0  0  0  0  0  0  0  0  0  0  0  0
   16.1892   -1.1124   18.7162 C   0  0  0  0  0  0  0  0  0  0  0  0
   15.1318   -0.4182   19.2750 C   0  0  0  0  0  0  0  0  0  0  0  0
   15.0754    0.9617   19.1013 C   0  0  0  0  0  0  0  0  0  0  0  0
   16.0688    1.6046   18.3580 C   0  0  0  0  0  0  0  0  0  0  0  0
   17.1161    0.8292   17.8652 C   0  0  0  0  0  0  0  0  0  0  0  0
   16.7870    3.6123   14.0730 C   0  0  1  0  0  0  0  0  0  0  0  0
   17.8979    3.2116   13.1650 C   0  0  0  0  0  0  0  0  0  0  0  0
   17.9587    4.0273   11.9407 C   0  0  0  0  0  0  0  0  0  0  0  0
   16.8883    4.8001   11.6234 N   0  0  0  0  0  0  0  0  0  0  0  0
   15.5703    4.3408   11.9363 C   0  0  0  0  0  0  0  0  0  0  0  0
   15.4368    3.9270   13.3945 C   0  0  2  0  0  0  0  0  0  0  0  0
   15.0844    7.9357   16.2874 C   0  0  0  0  0  0  0  0  0  0  0  0
   15.0222    6.9932   15.2821 C   0  0  0  0  0  0  0  0  0  0  0  0
   14.9224    7.5235   13.9889 N   0  0  0  0  0  0  0  0  0  0  0  0
   14.9439    8.8369   14.0454 C   0  0  0  0  0  0  0  0  0  0  0  0
   15.0535    9.5196   15.6115 S   0  0  0  0  0  0  0  0  0  0  0  0
   16.6672    2.4963   14.9418 O   0  0  0  0  0  0  0  0  0  0  0  0
  3  1  1  0
  3  2  1  0
  7  6  1  0
  7  5  1  0
  7  4  1  0
  8  4  2  0
 10  9  1  0
 10  5  2  0
 12 17  2  0
 12 13  1  0
 13 14  2  0
 14 15  1  0
 15 16  2  0
 16 17  1  0
 16  4  1  0
 17  2  1  0
 18 23  1  0
 18 19  1  6
 19 20  1  0
 20 21  1  0
 20 11  2  0
 21 22  1  0
 23 22  1  6
 23  9  1  0
 24 25  2  0
 24 28  1  0
 25 10  1  0
 25 26  1  0
 26 27  2  0
 27 28  1  0
 18 29  1  0
 29  6  1  0
M  END
>  <generation_date>  (54) 
None

>  <inchikey>  (54) 
XDNZJEFLXPXFSR-CMTCILLRSA-N

>  <ref_mols>  (54) 
cx0522a,cx0300a

>  <tags>  (54) 
['butcher: adenine', 'select (DF) [batch4_others]', 'pure_merges', 'fragmenstein', 'select (HA) [batch4_others]', 'butcher: oxyanion', 'raw']

>  <ref_pdb>  (54) 
cx0300a

>  <alias>  (54) 
cx0522a-cx0300a

>  <submitter_name>  (54) 
None

>  <HIPPO ID>  (54) 
931

>  <original ID>  (54) 
cx0522a-cx0300a

>  <method>  (54) 
None

>  <ref_url>  (54) 
None

>  <submitter_email>  (54) 
None

>  <original SMILES>  (54) 
CCOc1ncccc1C(=O)N1/C=C(/c2cscn2)N[C@H]2CNC(=O)C[C@@H]2OC1

$$$$
cx0522a-cx0721a
     RDKit          3D

 28 29  0  0  0  0  0  0  0  0999 V2000
   20.0534    1.4326   15.5887 C   0  0  0  0  0  0  0  0  0  0  0  0
   18.0096    1.3564   16.7237 O   0  0  0  0  0  0  0  0  0  0  0  0
   19.1456    0.5590   16.4107 C   0  0  0  0  0  0  0  0  0  0  0  0
   15.6571    2.7946   17.6096 C   0  0  0  0  0  0  0  0  0  0  0  0
   15.0398    4.6983   16.2276 C   0  0  0  0  0  0  0  0  0  0  0  0
   15.9517    2.7008   15.0792 C   0  0  0  0  0  0  0  0  0  0  0  0
   15.6550    3.3785   16.3393 N   0  0  0  0  0  0  0  0  0  0  0  0
   15.3114    3.4353   18.6074 O   0  0  0  0  0  0  0  0  0  0  0  0
   15.9152    5.8431   16.1122 N   0  0  0  0  0  0  0  0  0  0  0  0
   16.9848    5.9508   17.0926 C   0  0  0  0  0  0  0  0  0  0  0  0
   14.0261    7.0558   15.5445 O   0  0  0  0  0  0  0  0  0  0  0  0
   15.2493    7.0079   15.6942 C   0  0  0  0  0  0  0  0  0  0  0  0
   16.1398    8.2256   15.4335 C   0  0  0  0  0  0  0  0  0  0  0  0
   15.1976    9.0089   13.3053 C   0  0  0  0  0  0  0  0  0  0  0  0
   15.0149    9.3680   10.0642 C   0  0  0  0  0  0  0  0  0  0  0  0
   15.4717    9.2346   14.6417 N   0  0  0  0  0  0  0  0  0  0  0  0
   15.3010    7.8861   12.8156 O   0  0  0  0  0  0  0  0  0  0  0  0
   17.2553   -0.6554   17.6654 N   0  0  0  0  0  0  0  0  0  0  0  0
   16.3432   -1.2980   18.4200 C   0  0  0  0  0  0  0  0  0  0  0  0
   15.2402   -0.6738   18.9643 C   0  0  0  0  0  0  0  0  0  0  0  0
   15.0407    0.6724   18.6824 C   0  0  0  0  0  0  0  0  0  0  0  0
   15.9294    1.3603   17.8476 C   0  0  0  0  0  0  0  0  0  0  0  0
   17.0428    0.6642   17.4109 C   0  0  0  0  0  0  0  0  0  0  0  0
   14.8875   10.1991   12.5355 C   0  0  0  0  0  0  0  0  0  0  0  0
   14.8252   10.3731   11.1538 C   0  0  0  0  0  0  0  0  0  0  0  0
   14.4520   11.6460   10.7581 N   0  0  0  0  0  0  0  0  0  0  0  0
   14.1360   12.3575   11.8095 C   0  0  0  0  0  0  0  0  0  0  0  0
   14.4885   11.6763   13.3260 S   0  0  0  0  0  0  0  0  0  0  0  0
  3  1  1  0
  3  2  1  0
  7  6  1  0
  7  5  1  0
  7  4  1  0
  8  4  2  0
 10  9  1  0
 12 11  2  0
 12  9  1  0
 13 12  1  0
 16 14  1  0
 16 13  1  0
 17 14  2  0
  9  5  1  0
 18 23  2  0
 18 19  1  0
 19 20  2  0
 20 21  1  0
 21 22  2  0
 22 23  1  0
 22  4  1  0
 23  2  1  0
 24 14  1  0
 24 25  2  0
 24 28  1  0
 25 15  1  0
 25 26  1  0
 26 27  2  0
 27 28  1  0
M  END
>  <generation_date>  (55) 
None

>  <inchikey>  (55) 
BZRADJZUMXAQEU-UHFFFAOYSA-N

>  <ref_mols>  (55) 
cx0522a,cx0721a

>  <tags>  (55) 
['butcher: adenine', 'select (DF) [batch4_others]', 'pure_merges', 'fragmenstein', 'butcher: oxyanion', 'raw']

>  <ref_pdb>  (55) 
cx0300a

>  <alias>  (55) 
cx0522a-cx0721a

>  <submitter_name>  (55) 
None

>  <HIPPO ID>  (55) 
932

>  <original ID>  (55) 
cx0522a-cx0721a

>  <method>  (55) 
None

>  <ref_url>  (55) 
None

>  <submitter_email>  (55) 
None

>  <original SMILES>  (55) 
CCOc1ncccc1C(=O)N(C)CN(C)C(=O)CNC(=O)c1scnc1C

$$$$
cx0522a-cx1183a
     RDKit          3D

 21 23  0  0  0  0  0  0  0  0999 V2000
   15.4924    2.9174   17.5299 C   0  0  0  0  0  0  0  0  0  0  0  0
   15.3439    4.5631   15.7109 C   0  0  0  0  0  0  0  0  0  0  0  0
   15.7189    2.2207   15.0749 C   0  0  0  0  0  0  0  0  0  0  0  0
   15.5291    3.1888   16.1526 N   0  0  0  0  0  0  0  0  0  0  0  0
   15.1800    3.7856   18.3490 O   0  0  0  0  0  0  0  0  0  0  0  0
   17.2328   -3.6150   18.6357 O   0  0  0  0  0  0  0  0  0  0  0  0
   18.3270   -2.7069   18.6856 C   0  0  0  0  0  0  0  0  0  0  0  0
   16.9732   -0.5474   18.3674 C   0  0  0  0  0  0  0  0  0  0  0  0
   15.9392   -0.9790   19.2193 C   0  0  0  0  0  0  0  0  0  0  0  0
   14.8842   -0.1479   19.5571 C   0  0  0  0  0  0  0  0  0  0  0  0
   14.8107    1.1181   19.0075 C   0  0  0  0  0  0  0  0  0  0  0  0
   15.7803    1.5664   18.1035 C   0  0  0  0  0  0  0  0  0  0  0  0
   16.9396    0.7793   17.8555 C   0  0  0  0  0  0  0  0  0  0  0  0
   18.0574   -1.3755   18.0217 C   0  0  0  0  0  0  0  0  0  0  0  0
   19.0081   -0.9919   17.1435 N   0  0  0  0  0  0  0  0  0  0  0  0
   18.9757    0.2594   16.6860 C   0  0  0  0  0  0  0  0  0  0  0  0
   18.0629    1.2257   17.1176 C   0  0  0  0  0  0  0  0  0  0  0  0
   19.8624    0.6077   15.7031 C   0  0  0  0  0  0  0  0  0  0  0  0
   19.8033    1.8599   15.1076 C   0  0  0  0  0  0  0  0  0  0  0  0
   19.1125    2.8874   15.6981 C   0  0  0  0  0  0  0  0  0  0  0  0
   18.3070    2.5728   16.7674 C   0  0  0  0  0  0  0  0  0  0  0  0
  4  3  1  0
  4  2  1  0
  4  1  1  0
  5  1  2  0
  7  6  1  0
  8 13  1  0
  8  9  2  0
  9 10  1  0
 10 11  2  0
 11 12  1  0
 12 13  2  0
 12  1  1  0
 14  7  1  0
 14 15  2  0
 15 16  1  0
 16 18  1  0
 16 17  2  0
 17 21  1  0
 18 19  2  0
 19 20  1  0
 20 21  2  0
  8 14  1  0
 13 17  1  0
M  END
>  <generation_date>  (56) 
None

>  <inchikey>  (56) 
CUONIIGLNBPCDQ-UHFFFAOYSA-N

>  <ref_mols>  (56) 
cx0522a,cx1183a

>  <tags>  (56) 
['pure_merges', 'fragmenstein', 'butcher: oxyanion', 'select (HA) [batch3_oxyanion]', 'raw']

>  <ref_pdb>  (56) 
cx0300a

>  <alias>  (56) 
cx0522a-cx1183a

>  <submitter_name>  (56) 
None

>  <HIPPO ID>  (56) 
939

>  <original ID>  (56) 
cx0522a-cx1183a

>  <method>  (56) 
None

>  <ref_url>  (56) 
None

>  <submitter_email>  (56) 
None

>  <original SMILES>  (56) 
CN(C)C(=O)c1cccc2c(CO)nc3ccccc3c12

$$$$
cx0398a-cx0824a
     RDKit          3D

 21 23  0  0  0  0  0  0  0  0999 V2000
   16.3293    3.8610   14.9732 N   0  0  0  0  0  0  0  0  0  0  0  0
   15.3335    3.6774   13.8889 C   0  0  0  0  0  0  0  0  0  0  0  0
   15.6101    0.9856   15.6121 O   0  0  0  0  0  0  0  0  0  0  0  0
   15.2596    0.6999   18.1894 F   0  0  0  0  0  0  0  0  0  0  0  0
   17.2512    2.6977   15.0944 C   0  0  1  0  0  0  0  0  0  0  0  0
   18.5610    2.9656   15.8312 C   0  0  0  0  0  0  0  0  0  0  0  0
   18.9215    1.5939   16.3987 C   0  0  0  0  0  0  0  0  0  0  0  0
   17.6484    1.0228   16.7171 N   0  0  0  0  0  0  0  0  0  0  0  0
   16.6862    1.5001   15.8314 C   0  0  0  0  0  0  0  0  0  0  0  0
   16.1924   -0.2688   18.2037 C   0  0  0  0  0  0  0  0  0  0  0  0
   15.9433   -1.3833   18.9974 C   0  0  0  0  0  0  0  0  0  0  0  0
   16.9086   -2.3777   19.1180 C   0  0  0  0  0  0  0  0  0  0  0  0
   18.1321   -2.2331   18.4627 C   0  0  0  0  0  0  0  0  0  0  0  0
   18.3941   -1.0976   17.6845 C   0  0  0  0  0  0  0  0  0  0  0  0
   17.4167   -0.1116   17.5265 C   0  0  0  0  0  0  0  0  0  0  0  0
   15.8313    4.0665   17.4019 C   0  0  0  0  0  0  0  0  0  0  0  0
   15.7700    4.5233   16.0827 C   0  0  0  0  0  0  0  0  0  0  0  0
   15.0856    5.7347   15.8940 C   0  0  0  0  0  0  0  0  0  0  0  0
   14.4631    6.3662   16.9631 C   0  0  0  0  0  0  0  0  0  0  0  0
   14.4758    5.8943   18.2231 N   0  0  0  0  0  0  0  0  0  0  0  0
   15.1792    4.7634   18.4147 C   0  0  0  0  0  0  0  0  0  0  0  0
  2  1  1  0
  5  1  1  1
  5  6  1  0
  5  9  1  0
  6  7  1  0
  7  8  1  0
  8  9  1  0
  8 15  1  0
  9  3  2  0
 10 15  2  0
 10 11  1  0
 10  4  1  0
 11 12  2  0
 12 13  1  0
 13 14  2  0
 14 15  1  0
 16 21  2  0
 16 17  1  0
 17 18  2  0
 18 19  1  0
 19 20  2  0
 20 21  1  0
  1 17  1  0
M  END
>  <generation_date>  (57) 
None

>  <inchikey>  (57) 
LKDGGWMXOHPRMI-HNNXBMFYSA-N

>  <ref_mols>  (57) 
cx0398a,cx0824a

>  <tags>  (57) 
['pure_merges', 'fragmenstein', 'butcher: oxyanion', 'select (HA) [batch3_oxyanion]', 'raw']

>  <ref_pdb>  (57) 
cx0300a

>  <alias>  (57) 
cx0398a-cx0824a

>  <submitter_name>  (57) 
None

>  <HIPPO ID>  (57) 
947

>  <original ID>  (57) 
cx0398a-cx0824a

>  <method>  (57) 
None

>  <ref_url>  (57) 
None

>  <submitter_email>  (57) 
None

>  <original SMILES>  (57) 
CN(c1ccncc1)[C@H]1CCN(c2ccccc2F)C1=O

$$$$
cx0398a-cx0300a
     RDKit          3D

 27 30  0  0  0  0  0  0  0  0999 V2000
   14.7845    4.7037   15.1600 C   0  0  0  0  0  0  0  0  0  0  0  0
   15.4772    1.5881   14.8932 O   0  0  0  0  0  0  0  0  0  0  0  0
   14.8407    1.1131   17.7672 F   0  0  0  0  0  0  0  0  0  0  0  0
   14.8670    6.0140   15.9177 C   0  0  0  0  0  0  0  0  0  0  0  0
   14.8945    5.9788   17.1496 O   0  0  0  0  0  0  0  0  0  0  0  0
   18.7445    3.7250   11.5262 O   0  0  0  0  0  0  0  0  0  0  0  0
   17.0518    3.4114   14.8240 C   0  0  2  0  0  0  0  0  0  0  0  0
   17.8361    3.8452   16.0804 C   0  0  0  0  0  0  0  0  0  0  0  0
   18.3628    2.5238   16.6524 C   0  0  0  0  0  0  0  0  0  0  0  0
   17.2774    1.6254   16.3910 N   0  0  0  0  0  0  0  0  0  0  0  0
   16.4562    2.1143   15.3760 C   0  0  0  0  0  0  0  0  0  0  0  0
   15.8270    0.2026   17.7851 C   0  0  0  0  0  0  0  0  0  0  0  0
   15.6352   -0.9401   18.5632 C   0  0  0  0  0  0  0  0  0  0  0  0
   16.6622   -1.8705   18.7054 C   0  0  0  0  0  0  0  0  0  0  0  0
   17.8893   -1.6354   18.0874 C   0  0  0  0  0  0  0  0  0  0  0  0
   18.0900   -0.4701   17.3331 C   0  0  0  0  0  0  0  0  0  0  0  0
   17.0521    0.4551   17.1543 C   0  0  0  0  0  0  0  0  0  0  0  0
   14.8897    8.5195   15.8665 C   0  0  0  0  0  0  0  0  0  0  0  0
   14.8783    7.2994   15.2080 C   0  0  0  0  0  0  0  0  0  0  0  0
   14.8872    7.3988   13.8205 N   0  0  0  0  0  0  0  0  0  0  0  0
   14.8879    8.6677   13.4705 C   0  0  0  0  0  0  0  0  0  0  0  0
   14.9035    9.8116   14.7451 S   0  0  0  0  0  0  0  0  0  0  0  0
   18.0508    3.0334   13.7089 C   0  0  0  0  0  0  0  0  0  0  0  0
   17.8349    3.6362   12.3391 C   0  0  0  0  0  0  0  0  0  0  0  0
   16.5976    4.0578   12.0003 N   0  0  0  0  0  0  0  0  0  0  0  0
   15.5014    4.0117   12.9087 C   0  0  0  0  0  0  0  0  0  0  0  0
   16.0049    4.4375   14.2905 C   0  0  1  0  0  0  0  0  0  0  0  0
  5  4  2  0
  4  1  1  0
  7  8  1  1
  7 11  1  0
  8  9  1  0
  9 10  1  0
 10 11  1  0
 10 17  1  0
 11  2  2  0
 12 17  2  0
 12 13  1  0
 12  3  1  0
 13 14  2  0
 14 15  1  0
 15 16  2  0
 16 17  1  0
 18 19  2  0
 18 22  1  0
 19  4  1  0
 19 20  1  0
 20 21  2  0
 21 22  1  0
 23 24  1  0
 24 25  1  0
 24  6  2  0
 25 26  1  0
 26 27  1  0
  7 27  1  0
  7 23  1  0
 27  1  1  1
M  END
>  <generation_date>  (58) 
None

>  <inchikey>  (58) 
GALXDKHZCUFLNP-BLVKFPJESA-N

>  <ref_mols>  (58) 
cx0398a,cx0300a

>  <tags>  (58) 
['butcher: adenine', 'select (DF) [batch4_others]', 'pure_merges', 'fragmenstein', 'butcher: oxyanion', 'raw']

>  <ref_pdb>  (58) 
cx0300a

>  <alias>  (58) 
cx0398a-cx0300a

>  <submitter_name>  (58) 
None

>  <HIPPO ID>  (58) 
962

>  <original ID>  (58) 
cx0398a-cx0300a

>  <method>  (58) 
None

>  <ref_url>  (58) 
None

>  <submitter_email>  (58) 
None

>  <original SMILES>  (58) 
O=C1C[C@@]2(CCN(c3ccccc3F)C2=O)[C@H](CC(=O)c2cscn2)CN1

$$$$
cx0317a-cx0305a
     RDKit          3D

 21 22  0  0  0  0  0  0  0  0999 V2000
   14.4423    4.3927   14.5802 C   0  0  0  0  0  0  0  0  0  0  0  0
   18.2961    4.1443   11.6853 O   0  0  0  0  0  0  0  0  0  0  0  0
   15.4644    5.2840   11.6851 C   0  0  0  0  0  0  0  0  0  0  0  0
   14.8523    4.3301   10.6622 C   0  0  0  0  0  0  0  0  0  0  0  0
   14.1120    5.0990    9.7174 O   0  0  0  0  0  0  0  0  0  0  0  0
   16.7534    3.4298   14.6749 N   0  0  0  0  0  0  0  0  0  0  0  0
   15.7903    4.1869   13.9871 C   0  0  0  0  0  0  0  0  0  0  0  0
   16.1914    4.5833   12.7675 C   0  0  0  0  0  0  0  0  0  0  0  0
   17.5873    4.1162   12.6694 C   0  0  0  0  0  0  0  0  0  0  0  0
   17.9258    3.5971   13.9002 N   0  0  0  0  0  0  0  0  0  0  0  0
   17.0114    0.4798   16.6274 N   0  0  0  0  0  0  0  0  0  0  0  0
   16.4225    1.9967   14.8449 C   0  0  0  0  0  0  0  0  0  0  0  0
   15.2846    1.9892   16.9819 O   0  0  0  0  0  0  0  0  0  0  0  0
   16.1785    1.5338   16.2766 C   0  0  0  0  0  0  0  0  0  0  0  0
   18.8253   -1.7888   16.7673 C   0  0  0  0  0  0  0  0  0  0  0  0
   16.8321   -0.4541   17.6704 C   0  0  0  0  0  0  0  0  0  0  0  0
   17.7159   -1.5491   17.7542 C   0  0  0  0  0  0  0  0  0  0  0  0
   17.5353   -2.4839   18.7795 C   0  0  0  0  0  0  0  0  0  0  0  0
   16.5060   -2.2976   19.6814 C   0  0  0  0  0  0  0  0  0  0  0  0
   15.6315   -1.2762   19.6190 N   0  0  0  0  0  0  0  0  0  0  0  0
   15.8095   -0.3814   18.6155 C   0  0  0  0  0  0  0  0  0  0  0  0
  4  3  1  0
  5  4  1  0
  6  7  1  0
  6 10  1  0
  7  1  1  0
  7  8  2  0
  8  9  1  0
  8  3  1  0
  9  2  2  0
  9 10  1  0
 14 13  2  0
 14 12  1  0
 14 11  1  0
 16 11  1  0
 16 21  1  0
 16 17  2  0
 17 18  1  0
 17 15  1  0
 18 19  2  0
 19 20  1  0
 20 21  2  0
  6 12  1  0
M  END
>  <generation_date>  (59) 
None

>  <inchikey>  (59) 
GQXYNJMUNPQGML-UHFFFAOYSA-N

>  <ref_mols>  (59) 
cx0317a,cx0305a

>  <tags>  (59) 
['pure_merges', 'fragmenstein', 'butcher: oxyanion', 'select (HA) [batch3_oxyanion]', 'raw']

>  <ref_pdb>  (59) 
cx0300a

>  <alias>  (59) 
cx0317a-cx0305a

>  <submitter_name>  (59) 
None

>  <HIPPO ID>  (59) 
988

>  <original ID>  (59) 
cx0317a-cx0305a

>  <method>  (59) 
None

>  <ref_url>  (59) 
None

>  <submitter_email>  (59) 
None

>  <original SMILES>  (59) 
Cc1ccncc1NC(=O)Cn1[nH]c(=O)c(CCO)c1C

$$$$
cx0317a-cx0543a
     RDKit          3D

 17 18  0  0  0  0  0  0  0  0999 V2000
   15.0964    3.4498   15.0668 C   0  0  0  0  0  0  0  0  0  0  0  0
   18.4623    3.8292   11.6741 O   0  0  0  0  0  0  0  0  0  0  0  0
   15.6764    4.7176   12.1722 C   0  0  0  0  0  0  0  0  0  0  0  0
   15.1639    4.0075   10.9148 C   0  0  0  0  0  0  0  0  0  0  0  0
   14.3664    4.9143   10.1505 O   0  0  0  0  0  0  0  0  0  0  0  0
   17.8517    1.7907   15.8224 C   0  0  0  0  0  0  0  0  0  0  0  0
   19.0593    1.5258   15.9363 O   0  0  0  0  0  0  0  0  0  0  0  0
   17.4597    2.6409   14.7504 N   0  0  0  0  0  0  0  0  0  0  0  0
   16.3371    3.3087   14.2860 C   0  0  0  0  0  0  0  0  0  0  0  0
   16.5244    3.8706   13.0705 C   0  0  0  0  0  0  0  0  0  0  0  0
   17.9186    3.5552   12.7228 C   0  0  0  0  0  0  0  0  0  0  0  0
   18.4489    2.9039   13.8023 N   0  0  0  0  0  0  0  0  0  0  0  0
   16.0261    1.6208   17.6974 C   0  0  0  0  0  0  0  0  0  0  0  0
   16.9029    1.1631   16.7287 C   0  0  0  0  0  0  0  0  0  0  0  0
   16.9477   -0.2130   16.8082 O   0  0  0  0  0  0  0  0  0  0  0  0
   16.0745   -0.6134   17.7631 C   0  0  0  0  0  0  0  0  0  0  0  0
   15.4834    0.4778   18.3493 C   0  0  0  0  0  0  0  0  0  0  0  0
  4  3  1  0
  5  4  1  0
  7  6  2  0
  8  9  1  0
  8 12  1  0
  9  1  1  0
  9 10  2  0
 10 11  1  0
 10  3  1  0
 11  2  2  0
 11 12  1  0
 13 14  2  0
 13 17  1  0
 14  6  1  0
 14 15  1  0
 15 16  1  0
 16 17  2  0
  6  8  1  0
M  END
>  <generation_date>  (60) 
None

>  <inchikey>  (60) 
STZRFKHEOQBQRQ-UHFFFAOYSA-N

>  <ref_mols>  (60) 
cx0317a,cx0543a

>  <tags>  (60) 
['pure_merges', 'fragmenstein', 'butcher: oxyanion', 'select (HA) [batch3_oxyanion]', 'raw']

>  <ref_pdb>  (60) 
cx0300a

>  <alias>  (60) 
cx0317a-cx0543a

>  <submitter_name>  (60) 
None

>  <HIPPO ID>  (60) 
997

>  <original ID>  (60) 
cx0317a-cx0543a

>  <method>  (60) 
None

>  <ref_url>  (60) 
None

>  <submitter_email>  (60) 
None

>  <original SMILES>  (60) 
Cc1c(CCO)c(=O)[nH]n1C(=O)c1ccco1

$$$$
cx0317a-cx1410a
     RDKit          3D

 20 22  0  0  0  0  0  0  0  0999 V2000
   14.2791    4.5364   14.5884 C   0  0  0  0  0  0  0  0  0  0  0  0
   18.1551    4.5087   11.8542 O   0  0  0  0  0  0  0  0  0  0  0  0
   15.3501    5.6564   11.6866 C   0  0  2  0  0  0  0  0  0  0  0  0
   14.1454    4.8148   11.1772 C   0  0  0  0  0  0  0  0  0  0  0  0
   13.9758    4.9676    9.7692 O   0  0  0  0  0  0  0  0  0  0  0  0
   14.2350   13.1408   12.9312 N   0  0  0  0  0  0  0  0  0  0  0  0
   16.6036    3.7935   14.6779 N   0  0  0  0  0  0  0  0  0  0  0  0
   15.6355    4.4814   14.0025 C   0  0  0  0  0  0  0  0  0  0  0  0
   16.0344    4.9908   12.8387 C   0  0  0  0  0  0  0  0  0  0  0  0
   17.3913    4.4149   12.7974 C   0  0  0  0  0  0  0  0  0  0  0  0
   17.6431    3.7562   13.9810 N   0  0  0  0  0  0  0  0  0  0  0  0
   14.5908   11.8651   12.6705 C   0  0  0  0  0  0  0  0  0  0  0  0
   14.6546   11.4111   11.4519 N   0  0  0  0  0  0  0  0  0  0  0  0
   14.8186   10.0428   11.4723 C   0  0  0  0  0  0  0  0  0  0  0  0
   14.9306    9.4387   12.7337 C   0  0  0  0  0  0  0  0  0  0  0  0
   14.8593   10.7079   13.9127 S   0  0  0  0  0  0  0  0  0  0  0  0
   14.7784    9.2248   10.3406 C   0  0  0  0  0  0  0  0  0  0  0  0
   14.8369    7.8408   10.5226 C   0  0  0  0  0  0  0  0  0  0  0  0
   15.0686    7.1920   11.7492 C   0  0  0  0  0  0  0  0  0  0  0  0
   15.0772    8.0165   12.8930 C   0  0  0  0  0  0  0  0  0  0  0  0
  3  4  1  1
  5  4  1  0
  7  8  1  0
  7 11  2  0
  8  1  1  0
  8  9  2  0
  9 10  1  0
  9  3  1  0
 10  2  2  0
 10 11  1  0
 12  6  1  0
 12 13  2  0
 12 16  1  0
 13 14  1  0
 14 17  2  0
 14 15  1  0
 15 20  2  0
 15 16  1  0
 17 18  1  0
 18 19  2  0
 19 20  1  0
  3 19  1  0
M  END
>  <generation_date>  (61) 
None

>  <inchikey>  (61) 
LPTKFJPKUGXCQF-QMMMGPOBSA-N

>  <ref_mols>  (61) 
cx0317a,cx1410a

>  <tags>  (61) 
['butcher: adenine', 'pure_merges', 'fragmenstein', 'select (HA) [batch4_others]', 'butcher: oxyanion', 'raw']

>  <ref_pdb>  (61) 
cx0300a

>  <alias>  (61) 
cx0317a-cx1410a

>  <submitter_name>  (61) 
None

>  <HIPPO ID>  (61) 
1000

>  <original ID>  (61) 
cx0317a-cx1410a

>  <method>  (61) 
None

>  <ref_url>  (61) 
None

>  <submitter_email>  (61) 
None

>  <original SMILES>  (61) 
CC1=C([C@@H](CO)c2ccc3nc(N)sc3c2)C(=O)N=N1

$$$$
cx0317a-cx0441a
     RDKit          3D

 16 17  0  0  0  0  0  0  0  0999 V2000
   14.5180    4.1870   14.6748 C   0  0  0  0  0  0  0  0  0  0  0  0
   18.4827    3.4870   12.0823 O   0  0  0  0  0  0  0  0  0  0  0  0
   15.8509    4.8917   11.8648 C   0  0  0  0  0  0  0  0  0  0  0  0
   14.9035    4.1327   10.9336 C   0  0  0  0  0  0  0  0  0  0  0  0
   14.3817    5.0236    9.9460 O   0  0  0  0  0  0  0  0  0  0  0  0
   16.1376    1.6599   15.3980 N   0  0  0  0  0  0  0  0  0  0  0  0
   16.6605    2.8936   14.9586 N   0  0  0  0  0  0  0  0  0  0  0  0
   15.8322    3.7157   14.1795 C   0  0  0  0  0  0  0  0  0  0  0  0
   16.3653    4.0750   12.9990 C   0  0  0  0  0  0  0  0  0  0  0  0
   17.6925    3.4354   13.0065 C   0  0  0  0  0  0  0  0  0  0  0  0
   17.8406    2.7844   14.2206 N   0  0  0  0  0  0  0  0  0  0  0  0
   15.8463    1.8526   17.9275 C   0  0  0  0  0  0  0  0  0  0  0  0
   16.6054    1.2395   16.7310 C   0  0  0  0  0  0  0  0  0  0  0  0
   16.4177   -0.2927   16.9098 C   0  0  0  0  0  0  0  0  0  0  0  0
   15.9863   -0.4592   18.3291 C   0  0  0  0  0  0  0  0  0  0  0  0
   15.6638    0.7119   18.8825 C   0  0  0  0  0  0  0  0  0  0  0  0
  4  3  1  0
  5  4  1  0
  7  8  1  0
  7 11  1  0
  8  1  1  0
  8  9  2  0
  9 10  1  0
  9  3  1  0
 10  2  2  0
 10 11  1  0
 12 13  1  0
 12 16  1  0
 13 14  1  0
 13  6  1  0
 14 15  1  0
 15 16  2  0
  6  7  1  0
M  END
>  <generation_date>  (62) 
None

>  <inchikey>  (62) 
OXWVKFSSUNEWDS-UHFFFAOYSA-N

>  <ref_mols>  (62) 
cx0317a,cx0441a

>  <tags>  (62) 
['pure_merges', 'fragmenstein', 'butcher: oxyanion', 'select (HA) [batch3_oxyanion]', 'raw']

>  <ref_pdb>  (62) 
cx0300a

>  <alias>  (62) 
cx0317a-cx0441a

>  <submitter_name>  (62) 
None

>  <HIPPO ID>  (62) 
1005

>  <original ID>  (62) 
cx0317a-cx0441a

>  <method>  (62) 
None

>  <ref_url>  (62) 
None

>  <submitter_email>  (62) 
None

>  <original SMILES>  (62) 
Cc1c(CCO)c(=O)[nH]n1NC1CC=CC1

$$$$
cx1271a-cx0969a
     RDKit          3D

 12 13  0  0  0  0  0  0  0  0999 V2000
   14.6327   13.7796   12.7381 N   0  0  0  0  0  0  0  0  0  0  0  0
   15.7362   11.3759   14.7134 C   0  0  0  0  0  0  0  0  0  0  0  0
   15.6587   10.5432   15.8639 O   0  0  0  0  0  0  0  0  0  0  0  0
   14.5935   12.4629   12.5804 C   0  0  0  0  0  0  0  0  0  0  0  0
   14.6948   11.9691   11.3868 N   0  0  0  0  0  0  0  0  0  0  0  0
   14.7898   10.5997   11.3523 C   0  0  0  0  0  0  0  0  0  0  0  0
   14.7496   10.0282   12.6263 C   0  0  0  0  0  0  0  0  0  0  0  0
   14.2799   11.2729   13.7239 S   0  0  0  0  0  4  0  0  0  0  0  0
   14.8688    9.8063   10.2035 C   0  0  0  0  0  0  0  0  0  0  0  0
   14.8605    8.4191   10.3793 C   0  0  0  0  0  0  0  0  0  0  0  0
   14.8622    7.8386   11.6527 C   0  0  0  0  0  0  0  0  0  0  0  0
   14.8484    8.6359   12.8093 C   0  0  0  0  0  0  0  0  0  0  0  0
  3  2  1  0
  4  1  1  0
  4  5  1  0
  4  8  2  0
  5  6  1  0
  6  9  2  0
  6  7  1  0
  7 12  2  0
  7  8  1  0
  9 10  1  0
 10 11  2  0
 11 12  1  0
  2  8  1  0
M  END
>  <generation_date>  (63) 
None

>  <inchikey>  (63) 
KIKAFJHGAGCWDJ-GFCCVEGCSA-N

>  <ref_mols>  (63) 
cx1271a,cx0969a

>  <tags>  (63) 
['butcher: adenine', 'pure_merges', 'fragmenstein', 'select (HA) [batch1_adenine]', 'raw']

>  <ref_pdb>  (63) 
cx0300a

>  <alias>  (63) 
cx1271a-cx0969a

>  <submitter_name>  (63) 
None

>  <HIPPO ID>  (63) 
1029

>  <original ID>  (63) 
cx1271a-cx0969a

>  <method>  (63) 
None

>  <ref_url>  (63) 
None

>  <submitter_email>  (63) 
None

>  <original SMILES>  (63) 
NC1=S(CO)c2ccccc2N1

$$$$
cx1271a-cx0721a
     RDKit          3D

 18 19  0  0  0  0  0  0  0  0999 V2000
   14.6692   14.0117   12.6611 N   0  0  0  0  0  0  0  0  0  0  0  0
   15.9885    5.9719   16.8624 N   0  0  0  0  0  0  0  0  0  0  0  0
   17.1026    6.2771   17.7444 C   0  0  0  0  0  0  0  0  0  0  0  0
   14.0324    6.8479   16.0301 O   0  0  0  0  0  0  0  0  0  0  0  0
   15.3459    4.6934   17.0640 C   0  0  0  0  0  0  0  0  0  0  0  0
   15.2389    6.9686   16.2517 C   0  0  0  0  0  0  0  0  0  0  0  0
   16.0293    8.1995   15.8042 C   0  0  0  0  0  0  0  0  0  0  0  0
   15.0348    8.1022   13.5876 C   0  0  0  0  0  0  0  0  0  0  0  0
   15.3322    8.9327   14.7514 N   0  0  0  0  0  0  0  0  0  0  0  0
   14.6093   12.7191   12.2804 C   0  0  0  0  0  0  0  0  0  0  0  0
   14.6872   12.3270   11.0416 N   0  0  0  0  0  0  0  0  0  0  0  0
   14.7379   10.9502   10.9846 C   0  0  0  0  0  0  0  0  0  0  0  0
   14.7732   10.2988   12.2203 C   0  0  0  0  0  0  0  0  0  0  0  0
   14.5930   11.4984   13.4529 S   0  0  0  0  0  0  0  0  0  0  0  0
   14.7182   10.1723    9.8120 C   0  0  0  0  0  0  0  0  0  0  0  0
   14.6789    8.7854    9.8880 C   0  0  0  0  0  0  0  0  0  0  0  0
   14.7713    8.1486   11.1126 C   0  0  0  0  0  0  0  0  0  0  0  0
   14.8655    8.8861   12.3172 C   0  0  0  0  0  0  0  0  0  0  0  0
  3  2  1  0
  5  2  1  0
  6  4  2  0
  6  2  1  0
  7  6  1  0
  9  8  1  0
  9  7  1  0
 10  1  1  0
 10 11  2  0
 10 14  1  0
 11 12  1  0
 12 15  2  0
 12 13  1  0
 13 18  2  0
 13 14  1  0
 15 16  1  0
 16 17  2  0
 17 18  1  0
 18  8  1  0
M  END
>  <generation_date>  (64) 
None

>  <inchikey>  (64) 
WZMWLLZLOKQLRZ-UHFFFAOYSA-N

>  <ref_mols>  (64) 
cx1271a,cx0721a

>  <tags>  (64) 
['butcher: adenine', 'pure_merges', 'fragmenstein', 'select (HA) [batch1_adenine]', 'raw']

>  <ref_pdb>  (64) 
cx0300a

>  <alias>  (64) 
cx1271a-cx0721a

>  <submitter_name>  (64) 
None

>  <HIPPO ID>  (64) 
1033

>  <original ID>  (64) 
cx1271a-cx0721a

>  <method>  (64) 
None

>  <ref_url>  (64) 
None

>  <submitter_email>  (64) 
None

>  <original SMILES>  (64) 
CN(C)C(=O)CNCc1cccc2nc(N)sc12

$$$$
cx1271a-cx1445a
     RDKit          3D

 11 12  0  0  0  0  0  0  0  0999 V2000
   14.1176   13.2971   12.0982 N   0  0  0  0  0  0  0  0  0  0  0  0
   14.5228   11.6094    9.7012 O   0  0  0  0  0  0  0  0  0  0  0  0
   14.5324   12.0003   12.0640 C   0  0  0  0  0  0  0  0  0  0  0  0
   14.6759   11.1941   10.9633 C   0  0  0  0  0  0  0  0  0  0  0  0
   14.8338    9.8160   11.2652 C   0  0  0  0  0  0  0  0  0  0  0  0
   14.8839    9.6194   12.6491 C   0  0  0  0  0  0  0  0  0  0  0  0
   14.8109   11.1189   13.5003 S   0  0  0  0  0  0  0  0  0  0  0  0
   14.8199    8.6877   10.4041 C   0  0  0  0  0  0  0  0  0  0  0  0
   14.8199    7.4041   10.9493 C   0  0  0  0  0  0  0  0  0  0  0  0
   14.9010    7.2254   12.3241 C   0  0  0  0  0  0  0  0  0  0  0  0
   14.9492    8.3214   13.1928 C   0  0  0  0  0  0  0  0  0  0  0  0
  3  1  1  0
  3  4  2  0
  3  7  1  0
  4  5  1  0
  5  8  2  0
  5  6  1  0
  6 11  2  0
  6  7  1  0
  8  9  1  0
  9 10  2  0
 10 11  1  0
  4  2  1  0
M  END
>  <generation_date>  (65) 
None

>  <inchikey>  (65) 
YRASGDJLRQZFBO-UHFFFAOYSA-N

>  <ref_mols>  (65) 
cx1271a,cx1445a

>  <tags>  (65) 
['butcher: adenine', 'pure_merges', 'fragmenstein', 'select (HA) [batch1_adenine]', 'raw']

>  <ref_pdb>  (65) 
cx0300a

>  <alias>  (65) 
cx1271a-cx1445a

>  <submitter_name>  (65) 
None

>  <HIPPO ID>  (65) 
1035

>  <original ID>  (65) 
cx1271a-cx1445a

>  <method>  (65) 
None

>  <ref_url>  (65) 
None

>  <submitter_email>  (65) 
None

>  <original SMILES>  (65) 
Nc1sc2ccccc2c1O

$$$$
cx1271a-cx0756a
     RDKit          3D

 13 13  0  0  0  0  0  0  0  0999 V2000
   14.7028   14.0411   12.3521 N   0  0  0  0  0  0  0  0  0  0  0  0
   14.2800   12.6528   12.3700 C   0  0  1  0  0  0  0  0  0  0  0  0
   14.9299   11.8238   11.3832 N   0  0  0  0  0  0  0  0  0  0  0  0
   14.8384   10.4373   11.3234 C   0  0  0  0  0  0  0  0  0  0  0  0
   14.9869    9.6018   12.4395 C   0  0  0  0  0  0  0  0  0  0  0  0
   14.5512   12.2804   14.1167 S   0  0  0  0  0  0  0  0  0  0  0  0
   14.6735    9.8015   10.0908 C   0  0  0  0  0  0  0  0  0  0  0  0
   14.5027    8.4151   10.0226 C   0  0  0  0  0  0  0  0  0  0  0  0
   14.5855    7.6142   11.1677 C   0  0  0  0  0  0  0  0  0  0  0  0
   14.8486    8.2002   12.4090 C   0  0  0  0  0  0  0  0  0  0  0  0
   15.5195    8.0161   14.8686 N   0  0  0  0  0  0  0  0  0  0  0  0
   14.9775    7.3477   13.6639 C   0  0  0  0  0  0  0  0  0  0  0  0
   14.5177    8.8594   15.4943 N   0  0  0  0  0  0  0  0  0  0  0  0
  2  1  1  1
  2  3  1  0
  2  6  1  0
  3  4  1  0
  4  7  2  0
  4  5  1  0
  5 10  2  0
  7  8  1  0
  8  9  2  0
  9 10  1  0
 11 12  1  0
 11 13  1  0
 10 12  1  0
M  END
>  <generation_date>  (66) 
None

>  <inchikey>  (66) 
DNRXHWCVQSPAFQ-QMMMGPOBSA-N

>  <ref_mols>  (66) 
cx1271a,cx0756a

>  <tags>  (66) 
['butcher: adenine', 'pure_merges', 'fragmenstein', 'select (HA) [batch1_adenine]', 'raw']

>  <ref_pdb>  (66) 
cx0300a

>  <alias>  (66) 
cx1271a-cx0756a

>  <submitter_name>  (66) 
None

>  <HIPPO ID>  (66) 
1036

>  <original ID>  (66) 
cx1271a-cx0756a

>  <method>  (66) 
None

>  <ref_url>  (66) 
None

>  <submitter_email>  (66) 
None

>  <original SMILES>  (66) 
NNCc1cccc(N[C@H](N)S)c1

$$$$
cx1298a-cx0544a
     RDKit          3D

 21 24  0  0  0  0  0  0  0  0999 V2000
   15.8545    5.9379   12.6647 C   0  0  0  0  0  0  0  0  0  0  0  0
   14.8195   10.6057   10.3009 C   0  0  0  0  0  0  0  0  0  0  0  0
   15.4116    8.2557   10.5078 N   0  0  0  0  0  0  0  0  0  0  0  0
   15.1169    9.3234    9.5128 C   0  0  0  0  0  0  0  0  0  0  0  0
   14.8341   15.7727   14.2302 C   0  0  0  0  0  0  0  0  0  0  0  0
   15.1644   14.6354   13.5565 N   0  0  0  0  0  0  0  0  0  0  0  0
   15.5192   16.8546   13.7687 N   0  0  0  0  0  0  0  0  0  0  0  0
   13.9817   15.8735   15.0974 O   0  0  0  0  0  0  0  0  0  0  0  0
   14.9216    6.7717   13.5193 C   0  0  1  0  0  0  0  0  0  0  0  0
   15.4028    6.9332   14.9792 C   0  0  0  0  0  0  0  0  0  0  0  0
   15.2566    8.3741   15.3113 N   0  0  0  0  0  0  0  0  0  0  0  0
   15.5860    9.0380   14.0471 C   0  0  1  0  0  0  0  0  0  0  0  0
   14.7249    8.2199   13.1104 C   0  0  1  0  0  0  0  0  0  0  0  0
   14.5809   10.9279   12.8312 C   0  0  1  0  0  0  0  0  0  0  0  0
   14.9458   10.1484   11.6651 N   0  0  0  0  0  0  0  0  0  0  0  0
   14.6908    8.7258   11.6789 C   0  0  1  0  0  0  0  0  0  0  0  0
   15.4152   10.4881   13.9608 N   0  0  0  0  0  0  0  0  0  0  0  0
   14.5959   12.4456   12.5866 C   0  0  0  0  0  0  0  0  0  0  0  0
   14.5890   13.3090   13.8561 C   0  0  1  0  0  0  0  0  0  0  0  0
   15.2901   12.6889   15.0640 C   0  0  0  0  0  0  0  0  0  0  0  0
   15.0833   11.1842   15.1890 C   0  0  0  0  0  0  0  0  0  0  0  0
  6  5  1  0
  7  5  1  0
  8  5  2  0
  4  3  1  0
  4  2  1  0
  9  1  1  6
  9 10  1  0
 13  9  1  6
 10 11  1  0
 12 11  1  1
 12 13  1  0
 12 17  1  0
 13 16  1  0
 14 17  1  0
 14 15  1  0
 15 16  1  0
 15  2  1  0
 16  3  1  6
 18 19  1  0
 19 20  1  0
 19  6  1  6
 20 21  1  0
 17 21  1  0
 14 18  1  6
M  END
>  <generation_date>  (67) 
None

>  <inchikey>  (67) 
QXCIGUDLGJJURP-ZRFFIENRSA-N

>  <ref_mols>  (67) 
cx0544a,cx1298a

>  <tags>  (67) 
['butcher: adenine', 'pure_merges', 'fragmenstein', 'select (HA) [batch4_others]', 'butcher: oxyanion', 'raw']

>  <ref_pdb>  (67) 
cx0300a

>  <alias>  (67) 
cx1298a-cx0544a

>  <submitter_name>  (67) 
None

>  <HIPPO ID>  (67) 
1040

>  <original ID>  (67) 
cx1298a-cx0544a

>  <method>  (67) 
None

>  <ref_url>  (67) 
None

>  <submitter_email>  (67) 
None

>  <original SMILES>  (67) 
C[C@H]1CN[C@H]2[C@H]1[C@@H]1NCCN1[C@@H]1C[C@H](NC(N)=O)CCN12

$$$$
cx1298a-cx1305a
     RDKit          3D

 15 17  0  0  0  0  0  0  0  0999 V2000
   15.1573    6.3037   12.3182 C   0  0  0  0  0  0  0  0  0  0  0  0
   14.5414   12.8948   12.5615 O   0  0  0  0  0  0  0  0  0  0  0  0
   14.8820   11.8215   15.0818 C   0  0  0  0  0  0  0  0  0  0  0  0
   15.0985    7.4938   13.1955 C   0  0  0  0  0  0  0  0  0  0  0  0
   15.1939    7.6017   14.5334 C   0  0  0  0  0  0  0  0  0  0  0  0
   15.1109    8.9008   15.0338 N   0  0  0  0  0  0  0  0  0  0  0  0
   14.9562    9.6481   13.9725 C   0  0  0  0  0  0  0  0  0  0  0  0
   14.9410    8.8381   12.7491 C   0  0  0  0  0  0  0  0  0  0  0  0
   14.6955   11.6742   12.6432 C   0  0  0  0  0  0  0  0  0  0  0  0
   14.7721   10.8257   11.5590 N   0  0  0  0  0  0  0  0  0  0  0  0
   14.8661    9.4785   11.5901 C   0  0  0  0  0  0  0  0  0  0  0  0
   14.8230   11.0080   13.8878 N   0  0  0  0  0  0  0  0  0  0  0  0
   14.6836   10.0297    9.4914 C   0  0  0  0  0  0  0  0  0  0  0  0
   14.7064   11.2537   10.2330 O   0  0  0  0  0  0  0  0  0  0  0  0
   14.9135    8.9012   10.3477 O   0  0  0  0  0  0  0  0  0  0  0  0
  4  1  1  0
  4  5  2  0
  4  8  1  0
  5  6  1  0
  6  7  2  0
  7  8  1  0
  7 12  1  0
  8 11  2  0
  9  2  2  0
  9 12  1  0
  9 10  1  0
 10 11  1  0
 12  3  1  0
 13 14  1  0
 13 15  1  0
 10 14  1  0
 11 15  1  0
M  END
>  <generation_date>  (68) 
None

>  <inchikey>  (68) 
OLSWFZKUMZLCMR-UHFFFAOYSA-N

>  <ref_mols>  (68) 
cx1298a,cx1305a

>  <tags>  (68) 
['butcher: adenine', 'pure_merges', 'fragmenstein', 'select (HA) [batch1_adenine]', 'raw']

>  <ref_pdb>  (68) 
cx0300a

>  <alias>  (68) 
cx1298a-cx1305a

>  <submitter_name>  (68) 
None

>  <HIPPO ID>  (68) 
1047

>  <original ID>  (68) 
cx1298a-cx1305a

>  <method>  (68) 
None

>  <ref_url>  (68) 
None

>  <submitter_email>  (68) 
None

>  <original SMILES>  (68) 
Cc1cnc2n(C)c(=O)n3c(c1-2)OCO3

$$$$
cx1298a-cx0839a
     RDKit          3D

 15 16  0  0  0  0  0  0  0  0999 V2000
   15.8192    5.3631   12.6254 C   0  0  0  0  0  0  0  0  0  0  0  0
   14.3306   12.1368   13.2990 O   0  0  0  0  0  0  0  0  0  0  0  0
   15.0319   10.5966   15.3011 C   0  0  0  0  0  0  0  0  0  0  0  0
   14.4294   12.3616   10.8757 C   0  0  0  0  0  0  0  0  0  0  0  0
   15.6116    6.6147   13.3104 N   0  0  0  0  0  0  0  0  0  0  0  0
   15.8902    6.8311   14.6166 C   0  0  0  0  0  0  0  0  0  0  0  0
   15.6486    8.0729   14.9317 N   0  0  0  0  0  0  0  0  0  0  0  0
   15.1815    8.7051   13.7863 C   0  0  0  0  0  0  0  0  0  0  0  0
   15.1111    7.7799   12.7649 C   0  0  0  0  0  0  0  0  0  0  0  0
   14.6384   10.9866   12.9672 C   0  0  0  0  0  0  0  0  0  0  0  0
   14.7052   10.9702   11.4019 C   0  0  0  0  0  0  0  0  0  0  0  0
   14.9100   10.0531   13.9377 N   0  0  0  0  0  0  0  0  0  0  0  0
   14.7530   10.0456   10.4321 C   0  0  0  0  0  0  0  0  0  0  0  0
   14.6857    8.7233   10.3750 C   0  0  0  0  0  0  0  0  0  0  0  0
   14.6798    7.7701   11.2921 C   0  0  0  0  0  0  0  0  0  0  0  0
  5  1  1  0
  5  6  1  0
  5  9  1  0
  6  7  2  0
  7  8  1  0
  8  9  2  0
  8 12  1  0
 10  2  2  0
 10 12  1  0
 10 11  1  0
 11  4  1  0
 12  3  1  0
 13 14  1  0
 14 15  2  0
  9 15  1  0
 11 13  2  0
M  END
>  <generation_date>  (69) 
None

>  <inchikey>  (69) 
QVRFFBSQAUABAF-VXWIUBPCSA-N

>  <ref_mols>  (69) 
cx1298a,cx0839a

>  <tags>  (69) 
['butcher: adenine', 'pure_merges', 'fragmenstein', 'select (HA) [batch4_others]', 'butcher: oxyanion', 'raw']

>  <ref_pdb>  (69) 
cx0300a

>  <alias>  (69) 
cx1298a-cx0839a

>  <submitter_name>  (69) 
None

>  <HIPPO ID>  (69) 
1057

>  <original ID>  (69) 
cx1298a-cx0839a

>  <method>  (69) 
None

>  <ref_url>  (69) 
None

>  <submitter_email>  (69) 
None

>  <original SMILES>  (69) 
C/C1=C/C=C\c2c(ncn2C)N(C)C1=O

$$$$
cx1298a-cx1268a
     RDKit          3D

 16 17  0  0  0  0  0  0  0  0999 V2000
   15.2941    5.9409   11.9954 C   0  0  0  0  0  0  0  0  0  0  0  0
   14.4894   12.3773   13.3340 O   0  0  0  0  0  0  0  0  0  0  0  0
   14.8999   10.8332   15.4857 C   0  0  0  0  0  0  0  0  0  0  0  0
   14.6429   11.6886   10.8129 C   0  0  0  0  0  0  0  0  0  0  0  0
   15.1413    8.7652   10.0418 C   0  0  0  0  0  0  0  0  0  0  0  0
   16.1282    9.3708    9.3324 N   0  0  0  0  0  0  0  0  0  0  0  0
   14.4956    7.8561    9.5242 O   0  0  0  0  0  0  0  0  0  0  0  0
   15.7504    7.0649   12.8005 N   0  0  0  0  0  0  0  0  0  0  0  0
   15.6338    6.7554   14.2426 C   0  0  0  0  0  0  0  0  0  0  0  0
   15.1729    7.9768   14.9177 N   0  0  0  0  0  0  0  0  0  0  0  0
   15.3696    9.0066   13.9083 C   0  0  1  0  0  0  0  0  0  0  0  0
   14.9029    8.2670   12.6657 C   0  0  1  0  0  0  0  0  0  0  0  0
   14.7074   11.1813   13.1251 C   0  0  0  0  0  0  0  0  0  0  0  0
   14.9624   10.6960   11.8388 N   0  0  0  0  0  0  0  0  0  0  0  0
   14.8689    9.2525   11.4781 C   0  0  1  0  0  0  0  0  0  0  0  0
   14.7249   10.2515   14.1653 N   0  0  0  0  0  0  0  0  0  0  0  0
  6  5  1  0
  7  5  2  0
  8  1  1  0
  8  9  1  0
 12  8  1  6
  9 10  1  0
 11 10  1  1
 11 12  1  0
 11 16  1  0
 12 15  1  0
 13  2  2  0
 13 16  1  0
 13 14  1  0
 14 15  1  0
 14  4  1  0
 15  5  1  6
 16  3  1  0
M  END
>  <generation_date>  (70) 
None

>  <inchikey>  (70) 
VZWPGCVVZBKFPQ-ATRFCDNQSA-N

>  <ref_mols>  (70) 
cx1298a,cx1268a

>  <tags>  (70) 
['butcher: adenine', 'select (DF) [batch4_others]', 'pure_merges', 'fragmenstein', 'select (HA) [batch4_others]', 'butcher: oxyanion', 'raw']

>  <ref_pdb>  (70) 
cx0300a

>  <alias>  (70) 
cx1298a-cx1268a

>  <submitter_name>  (70) 
None

>  <HIPPO ID>  (70) 
1069

>  <original ID>  (70) 
cx1298a-cx1268a

>  <method>  (70) 
None

>  <ref_url>  (70) 
None

>  <submitter_email>  (70) 
None

>  <original SMILES>  (70) 
CN1CN[C@H]2[C@H]1[C@H](C(N)=O)N(C)C(=O)N2C

$$$$
cx0864a-cx1338a
     RDKit          3D

 15 17  0  0  0  0  0  0  0  0999 V2000
   14.4246   13.2108   11.5876 N   0  0  0  0  0  0  0  0  0  0  0  0
   15.6193   11.1649   17.5667 N   0  0  0  0  0  0  0  0  0  0  0  0
   15.4490    9.8221   17.6961 C   0  0  0  0  0  0  0  0  0  0  0  0
   15.1637    9.3570   16.4359 C   0  0  0  0  0  0  0  0  0  0  0  0
   15.1773   10.5004   15.5941 C   0  0  0  0  0  0  0  0  0  0  0  0
   15.4655   11.6033   16.3093 N   0  0  0  0  0  0  0  0  0  0  0  0
   14.8694    9.3845    9.8077 C   0  0  0  0  0  0  0  0  0  0  0  0
   14.7219   10.7939   10.0472 O   0  0  0  0  0  0  0  0  0  0  0  0
   14.7105   10.8242   11.4106 C   0  0  0  0  0  0  0  0  0  0  0  0
   14.8818    9.5893   11.9715 C   0  0  0  0  0  0  0  0  0  0  0  0
   14.9495    8.6070   11.0255 O   0  0  0  0  0  0  0  0  0  0  0  0
   14.5026   11.9440   12.1881 C   0  0  0  0  0  0  0  0  0  0  0  0
   14.6641   11.8223   13.5633 C   0  0  0  0  0  0  0  0  0  0  0  0
   14.9315   10.5709   14.1541 C   0  0  0  0  0  0  0  0  0  0  0  0
   14.9915    9.4255   13.3418 C   0  0  0  0  0  0  0  0  0  0  0  0
  2  3  1  0
  2  6  1  0
  3  4  2  0
  4  5  1  0
  5 14  1  0
  5  6  2  0
  7  8  1  0
  7 11  1  0
  8  9  1  0
  9 12  2  0
  9 10  1  0
 10 15  2  0
 10 11  1  0
 12 13  1  0
 13 14  2  0
 14 15  1  0
  1 12  1  0
M  END
>  <generation_date>  (71) 
None

>  <inchikey>  (71) 
RGWZNWCCBDMABV-UHFFFAOYSA-N

>  <ref_mols>  (71) 
cx1338a,cx0864a

>  <tags>  (71) 
['butcher: adenine', 'pure_merges', 'fragmenstein', 'select (HA) [batch1_adenine]', 'raw']

>  <ref_pdb>  (71) 
cx0300a

>  <alias>  (71) 
cx0864a-cx1338a

>  <submitter_name>  (71) 
None

>  <HIPPO ID>  (71) 
1071

>  <original ID>  (71) 
cx0864a-cx1338a

>  <method>  (71) 
None

>  <ref_url>  (71) 
None

>  <submitter_email>  (71) 
None

>  <original SMILES>  (71) 
Nc1cc(-c2cc[nH]n2)cc2c1OCO2

$$$$
cx0864a-cx1371a
     RDKit          3D

 16 18  0  0  0  0  0  0  0  0999 V2000
   14.4258   13.1253   11.5125 N   0  0  0  0  0  0  0  0  0  0  0  0
   15.2405    7.6195   13.6021 Cl  0  0  0  0  0  0  0  0  0  0  0  0
   15.7559   11.0080   17.3521 N   0  0  0  0  0  0  0  0  0  0  0  0
   15.2572    9.7661   17.5846 C   0  0  0  0  0  0  0  0  0  0  0  0
   14.8481    9.2914   16.3620 C   0  0  0  0  0  0  0  0  0  0  0  0
   15.1494   10.3161   15.4279 C   0  0  0  0  0  0  0  0  0  0  0  0
   15.6988   11.3712   16.0628 N   0  0  0  0  0  0  0  0  0  0  0  0
   14.8985    9.4011    9.5645 C   0  0  0  0  0  0  0  0  0  0  0  0
   14.7356   10.7918    9.8753 O   0  0  0  0  0  0  0  0  0  0  0  0
   14.7173   10.7528   11.2367 C   0  0  0  0  0  0  0  0  0  0  0  0
   14.8795    9.4918   11.7410 C   0  0  0  0  0  0  0  0  0  0  0  0
   14.9706    8.5646   10.7370 O   0  0  0  0  0  0  0  0  0  0  0  0
   14.5042   11.8362   12.0580 C   0  0  0  0  0  0  0  0  0  0  0  0
   14.6530   11.6480   13.4274 C   0  0  0  0  0  0  0  0  0  0  0  0
   14.9118   10.3680   13.9811 C   0  0  0  0  0  0  0  0  0  0  0  0
   14.9729    9.2585   13.1118 C   0  0  0  0  0  0  0  0  0  0  0  0
  3  4  1  0
  3  7  1  0
  4  5  2  0
  5  6  1  0
  6 15  1  0
  6  7  2  0
  8  9  1  0
  8 12  1  0
  9 10  1  0
 10 13  2  0
 10 11  1  0
 11 16  2  0
 11 12  1  0
 13 14  1  0
 14 15  2  0
 15 16  1  0
 13  1  1  0
  2 16  1  0
M  END
>  <generation_date>  (72) 
None

>  <inchikey>  (72) 
QVQJCSWRXFIMAQ-UHFFFAOYSA-N

>  <ref_mols>  (72) 
cx1371a,cx0864a

>  <tags>  (72) 
['butcher: adenine', 'pure_merges', 'fragmenstein', 'select (HA) [batch1_adenine]', 'raw']

>  <ref_pdb>  (72) 
cx0300a

>  <alias>  (72) 
cx0864a-cx1371a

>  <submitter_name>  (72) 
None

>  <HIPPO ID>  (72) 
1072

>  <original ID>  (72) 
cx0864a-cx1371a

>  <method>  (72) 
None

>  <ref_url>  (72) 
None

>  <submitter_email>  (72) 
None

>  <original SMILES>  (72) 
Nc1cc(-c2cc[nH]n2)c(Cl)c2c1OCO2

$$$$
cx0864a-cx1271a
     RDKit          3D

 15 17  0  0  0  0  0  0  0  0999 V2000
   14.4557   13.2056   11.5617 N   0  0  0  0  0  0  0  0  0  0  0  0
   15.6152   11.1744   17.5536 N   0  0  0  0  0  0  0  0  0  0  0  0
   15.4444    9.8320   17.6861 C   0  0  0  0  0  0  0  0  0  0  0  0
   15.1591    9.3642   16.4269 C   0  0  0  0  0  0  0  0  0  0  0  0
   15.1733   10.5056   15.5823 C   0  0  0  0  0  0  0  0  0  0  0  0
   15.4612   11.6101   16.2951 N   0  0  0  0  0  0  0  0  0  0  0  0
   14.8726    9.3695    9.7997 C   0  0  0  0  0  0  0  0  0  0  0  0
   14.7305   10.7804   10.0329 O   0  0  0  0  0  0  0  0  0  0  0  0
   14.7157   10.8160   11.3961 C   0  0  0  0  0  0  0  0  0  0  0  0
   14.8802    9.5826   11.9625 C   0  0  0  0  0  0  0  0  0  0  0  0
   14.9472    8.5964   11.0206 O   0  0  0  0  0  0  0  0  0  0  0  0
   14.5149   11.9407   12.1680 C   0  0  0  0  0  0  0  0  0  0  0  0
   14.6698   11.8228   13.5448 C   0  0  0  0  0  0  0  0  0  0  0  0
   14.9294   10.5724   14.1415 C   0  0  0  0  0  0  0  0  0  0  0  0
   14.9866    9.4237   13.3336 C   0  0  0  0  0  0  0  0  0  0  0  0
  2  3  1  0
  2  6  1  0
  3  4  2  0
  4  5  1  0
  5 14  1  0
  5  6  2  0
  7  8  1  0
  7 11  1  0
  8  9  1  0
  9 12  2  0
  9 10  1  0
 10 15  2  0
 10 11  1  0
 12 13  1  0
 13 14  2  0
 14 15  1  0
  1 12  1  0
M  END
>  <generation_date>  (73) 
None

>  <inchikey>  (73) 
RGWZNWCCBDMABV-UHFFFAOYSA-N

>  <ref_mols>  (73) 
cx1271a,cx0864a

>  <tags>  (73) 
['butcher: adenine', 'pure_merges', 'fragmenstein', 'select (JA) [batch1_adenine]', 'raw']

>  <ref_pdb>  (73) 
cx0300a

>  <alias>  (73) 
cx0864a-cx1271a

>  <submitter_name>  (73) 
None

>  <HIPPO ID>  (73) 
1074

>  <original ID>  (73) 
cx0864a-cx1271a

>  <method>  (73) 
None

>  <ref_url>  (73) 
None

>  <submitter_email>  (73) 
None

>  <original SMILES>  (73) 
Nc1cc(-c2cc[nH]n2)cc2c1OCO2

$$$$
cx0864a-cx1194a
     RDKit          3D

 17 19  0  0  0  0  0  0  0  0999 V2000
   15.3213    7.9983   13.7302 C   0  0  0  0  0  0  0  0  0  0  0  0
   14.5689   13.0100   14.5134 C   0  0  0  0  0  0  0  0  0  0  0  0
   14.3105    7.5152   10.7124 C   0  0  0  0  0  0  0  0  0  0  0  0
   16.0420   10.7594   17.4646 N   0  0  0  0  0  0  0  0  0  0  0  0
   15.2081    9.7068   17.6760 C   0  0  0  0  0  0  0  0  0  0  0  0
   14.6602    9.4128   16.4515 C   0  0  0  0  0  0  0  0  0  0  0  0
   15.2245   10.3475   15.5440 C   0  0  0  0  0  0  0  0  0  0  0  0
   16.0888   11.1546   16.1859 N   0  0  0  0  0  0  0  0  0  0  0  0
   14.7834    9.6889    9.5911 C   0  0  0  0  0  0  0  0  0  0  0  0
   14.7024   11.0558   10.0262 O   0  0  0  0  0  0  0  0  0  0  0  0
   14.7279   10.9542   11.3891 C   0  0  0  0  0  0  0  0  0  0  0  0
   14.8976    9.6480   11.8330 C   0  0  0  0  0  0  0  0  0  0  0  0
   15.0033    8.7834   10.7267 N   0  0  0  0  0  0  0  0  0  0  0  0
   14.5672   12.0264   12.2314 C   0  0  0  0  0  0  0  0  0  0  0  0
   14.6741   11.8129   13.6083 C   0  0  0  0  0  0  0  0  0  0  0  0
   14.9550   10.5059   14.1056 C   0  0  0  0  0  0  0  0  0  0  0  0
   15.0326    9.3912   13.2118 C   0  0  0  0  0  0  0  0  0  0  0  0
  4  5  1  0
  4  8  1  0
  5  6  2  0
  6  7  1  0
  7 16  1  0
  7  8  2  0
  9 10  1  0
  9 13  1  0
 10 11  1  0
 11 14  2  0
 11 12  1  0
 12 17  2  0
 12 13  1  0
 14 15  1  0
 15 16  2  0
 16 17  1  0
  3 13  1  0
  1 17  1  0
  2 15  1  0
M  END
>  <generation_date>  (74) 
None

>  <inchikey>  (74) 
FRDQNWGIXVNQRB-UHFFFAOYSA-N

>  <ref_mols>  (74) 
cx0864a,cx1194a

>  <tags>  (74) 
['butcher: adenine', 'pure_merges', 'fragmenstein', 'select (HA) [batch1_adenine]', 'raw']

>  <ref_pdb>  (74) 
cx0300a

>  <alias>  (74) 
cx0864a-cx1194a

>  <submitter_name>  (74) 
None

>  <HIPPO ID>  (74) 
1079

>  <original ID>  (74) 
cx0864a-cx1194a

>  <method>  (74) 
None

>  <ref_url>  (74) 
None

>  <submitter_email>  (74) 
None

>  <original SMILES>  (74) 
Cc1cc2c(c(C)c1-c1cc[nH]n1)N(C)CO2

$$$$
cx0864a-cx0969a
     RDKit          3D

 15 17  0  0  0  0  0  0  0  0999 V2000
   16.7215   12.2384   15.7372 O   0  0  0  0  0  0  0  0  0  0  0  0
   15.9594   10.9212   17.4408 N   0  0  0  0  0  0  0  0  0  0  0  0
   15.2443    9.7952   17.5078 C   0  0  0  0  0  0  0  0  0  0  0  0
   14.7169    9.4248   16.2520 C   0  0  0  0  0  0  0  0  0  0  0  0
   15.1116   10.4253   15.3804 C   0  0  0  0  0  0  0  0  0  0  0  0
   15.8855   11.2379   16.1538 N   0  0  0  0  0  0  0  0  0  0  0  0
   14.8291    9.6125    9.5676 C   0  0  0  0  0  0  0  0  0  0  0  0
   14.6777   11.0122    9.8610 O   0  0  0  0  0  0  0  0  0  0  0  0
   14.7028   11.0054   11.2176 C   0  0  0  0  0  0  0  0  0  0  0  0
   14.8871    9.7468   11.7286 C   0  0  0  0  0  0  0  0  0  0  0  0
   14.9662    8.7979   10.7511 O   0  0  0  0  0  0  0  0  0  0  0  0
   14.5186   12.0868   12.0429 C   0  0  0  0  0  0  0  0  0  0  0  0
   14.6177   11.8881   13.4229 C   0  0  0  0  0  0  0  0  0  0  0  0
   14.8941   10.6101   13.9529 C   0  0  0  0  0  0  0  0  0  0  0  0
   14.9794    9.5133   13.0885 C   0  0  0  0  0  0  0  0  0  0  0  0
  2  3  2  0
  2  6  1  0
  3  4  1  0
  4  5  2  0
  5 14  1  0
  5  6  1  0
  7  8  1  0
  7 11  1  0
  8  9  1  0
  9 12  2  0
  9 10  1  0
 10 15  2  0
 10 11  1  0
 12 13  1  0
 13 14  2  0
 14 15  1  0
  1  6  1  0
M  END
>  <generation_date>  (75) 
None

>  <inchikey>  (75) 
JOXQXTUGOHUMII-UHFFFAOYSA-N

>  <ref_mols>  (75) 
cx0864a,cx0969a

>  <tags>  (75) 
['butcher: adenine', 'pure_merges', 'fragmenstein', 'select (HA) [batch1_adenine]', 'raw']

>  <ref_pdb>  (75) 
cx0300a

>  <alias>  (75) 
cx0864a-cx0969a

>  <submitter_name>  (75) 
None

>  <HIPPO ID>  (75) 
1081

>  <original ID>  (75) 
cx0864a-cx0969a

>  <method>  (75) 
None

>  <ref_url>  (75) 
None

>  <submitter_email>  (75) 
None

>  <original SMILES>  (75) 
On1nccc1-c1ccc2c(c1)OCO2

$$$$
cx0864a-cx1075a
     RDKit          3D

 15 17  0  0  0  0  0  0  0  0999 V2000
   14.5485    7.0868   11.5124 Br  0  0  0  0  0  0  0  0  0  0  0  0
   15.5713   11.7364   17.5039 N   0  0  0  0  0  0  0  0  0  0  0  0
   15.5303   10.3872   17.6682 C   0  0  0  0  0  0  0  0  0  0  0  0
   15.2718    9.8691   16.4238 C   0  0  0  0  0  0  0  0  0  0  0  0
   15.1676   10.9908   15.5529 C   0  0  0  0  0  0  0  0  0  0  0  0
   15.3583   12.1311   16.2391 N   0  0  0  0  0  0  0  0  0  0  0  0
   14.7129    9.4615    9.8020 C   0  0  0  0  0  0  0  0  0  0  0  0
   14.6091   10.9020    9.9866 O   0  0  0  0  0  0  0  0  0  0  0  0
   14.6706   11.0524   11.3465 C   0  0  0  0  0  0  0  0  0  0  0  0
   14.9103    9.8591   11.9919 C   0  0  0  0  0  0  0  0  0  0  0  0
   15.0098    8.8052   11.0717 N   0  0  0  0  0  0  0  0  0  0  0  0
   14.4409   12.2107   12.0462 C   0  0  0  0  0  0  0  0  0  0  0  0
   14.5668   12.1831   13.4390 C   0  0  0  0  0  0  0  0  0  0  0  0
   14.9130   10.9936   14.1113 C   0  0  0  0  0  0  0  0  0  0  0  0
   15.0380    9.8113   13.3723 C   0  0  0  0  0  0  0  0  0  0  0  0
  2  3  1  0
  2  6  1  0
  3  4  2  0
  4  5  1  0
  5 14  1  0
  5  6  2  0
  7  8  1  0
  7 11  1  0
  8  9  1  0
  9 12  2  0
  9 10  1  0
 10 15  2  0
 10 11  1  0
 12 13  1  0
 13 14  2  0
 14 15  1  0
  1 11  1  0
M  END
>  <generation_date>  (76) 
None

>  <inchikey>  (76) 
VLGXEHQBOHMDHJ-UHFFFAOYSA-N

>  <ref_mols>  (76) 
cx0864a,cx1075a

>  <tags>  (76) 
['butcher: adenine', 'pure_merges', 'fragmenstein', 'select (HA) [batch1_adenine]', 'raw']

>  <ref_pdb>  (76) 
cx0300a

>  <alias>  (76) 
cx0864a-cx1075a

>  <submitter_name>  (76) 
None

>  <HIPPO ID>  (76) 
1084

>  <original ID>  (76) 
cx0864a-cx1075a

>  <method>  (76) 
None

>  <ref_url>  (76) 
None

>  <submitter_email>  (76) 
None

>  <original SMILES>  (76) 
BrN1COc2ccc(-c3cc[nH]n3)cc21

$$$$
cx0864a-cx1203a
     RDKit          3D

 15 17  0  0  0  0  0  0  0  0999 V2000
   14.4440   13.1887   11.5569 N   0  0  0  0  0  0  0  0  0  0  0  0
   15.6152   11.1709   17.5505 N   0  0  0  0  0  0  0  0  0  0  0  0
   15.4445    9.8287   17.6857 C   0  0  0  0  0  0  0  0  0  0  0  0
   15.1594    9.3583   16.4275 C   0  0  0  0  0  0  0  0  0  0  0  0
   15.1735   10.4979   15.5805 C   0  0  0  0  0  0  0  0  0  0  0  0
   15.4613   11.6040   16.2911 N   0  0  0  0  0  0  0  0  0  0  0  0
   14.8748    9.3532    9.7994 C   0  0  0  0  0  0  0  0  0  0  0  0
   14.7302   10.7641   10.0307 O   0  0  0  0  0  0  0  0  0  0  0  0
   14.7156   10.8010   11.3938 C   0  0  0  0  0  0  0  0  0  0  0  0
   14.8810    9.5686   11.9620 C   0  0  0  0  0  0  0  0  0  0  0  0
   14.9490    8.5814   11.0212 O   0  0  0  0  0  0  0  0  0  0  0  0
   14.5113   11.9258   12.1642 C   0  0  0  0  0  0  0  0  0  0  0  0
   14.6678   11.8105   13.5410 C   0  0  0  0  0  0  0  0  0  0  0  0
   14.9296   10.5616   14.1396 C   0  0  0  0  0  0  0  0  0  0  0  0
   14.9877    9.4118   13.3335 C   0  0  0  0  0  0  0  0  0  0  0  0
  2  3  1  0
  2  6  1  0
  3  4  2  0
  4  5  1  0
  5 14  1  0
  5  6  2  0
  7  8  1  0
  7 11  1  0
  8  9  1  0
  9 12  2  0
  9 10  1  0
 10 15  2  0
 10 11  1  0
 12 13  1  0
 13 14  2  0
 14 15  1  0
  1 12  1  0
M  END
>  <generation_date>  (77) 
None

>  <inchikey>  (77) 
RGWZNWCCBDMABV-UHFFFAOYSA-N

>  <ref_mols>  (77) 
cx0864a,cx1203a

>  <tags>  (77) 
['butcher: adenine', 'pure_merges', 'fragmenstein', 'select (HA) [batch1_adenine]', 'raw']

>  <ref_pdb>  (77) 
cx0300a

>  <alias>  (77) 
cx0864a-cx1203a

>  <submitter_name>  (77) 
None

>  <HIPPO ID>  (77) 
1085

>  <original ID>  (77) 
cx0864a-cx1203a

>  <method>  (77) 
None

>  <ref_url>  (77) 
None

>  <submitter_email>  (77) 
None

>  <original SMILES>  (77) 
Nc1cc(-c2cc[nH]n2)cc2c1OCO2

$$$$
cx0864a-cx0553a
     RDKit          3D

 21 23  0  0  0  0  0  0  0  0999 V2000
   14.6806   13.7002   13.8589 C   0  0  0  0  0  0  0  0  0  0  0  0
   15.1071    7.6020   11.5109 C   0  0  0  0  0  0  0  0  0  0  0  0
   15.5082    6.5956   11.9199 N   0  0  0  0  0  0  0  0  0  0  0  0
   15.2891   12.0777   17.4707 N   0  0  0  0  0  0  0  0  0  0  0  0
   15.3763   10.7516   17.7098 C   0  0  0  0  0  0  0  0  0  0  0  0
   15.2428   10.1398   16.4804 C   0  0  0  0  0  0  0  0  0  0  0  0
   15.0414   11.1975   15.5292 C   0  0  0  0  0  0  0  0  0  0  0  0
   15.0573   12.3690   16.1917 N   0  0  0  0  0  0  0  0  0  0  0  0
   14.8369    9.3813    9.7285 C   0  0  0  0  0  0  0  0  0  0  0  0
   14.7513   10.8204    9.8729 O   0  0  0  0  0  0  0  0  0  0  0  0
   14.7598   11.0303   11.2265 C   0  0  0  0  0  0  0  0  0  0  0  0
   14.8365    9.8894   11.9702 C   0  0  0  0  0  0  0  0  0  0  0  0
   14.7265    8.7945   11.0795 N   0  0  0  0  0  0  0  0  0  0  0  0
   14.6470   12.2395   11.8503 C   0  0  0  0  0  0  0  0  0  0  0  0
   14.7127   12.3236   13.2607 C   0  0  0  0  0  0  0  0  0  0  0  0
   14.8617   11.1494   14.0473 C   0  0  0  0  0  0  0  0  0  0  0  0
   14.8516    9.9222   13.3576 C   0  0  0  0  0  0  0  0  0  0  0  0
   17.6074    9.1420   15.3914 O   0  0  0  0  0  0  0  0  0  0  0  0
   15.3738    8.6882   16.2644 C   0  0  0  0  0  0  0  0  0  0  0  0
   16.6683    8.3687   15.5443 C   0  0  0  0  0  0  0  0  0  0  0  0
   16.7273    7.0885   15.0760 N   0  0  0  0  0  0  0  0  0  0  0  0
  3  2  3  0
  4  5  1  0
  4  8  1  0
  5  6  2  0
  6  7  1  0
  7 16  1  0
  7  8  2  0
  9 10  1  0
  9 13  1  0
 10 11  1  0
 11 14  2  0
 11 12  1  0
 12 17  2  0
 12 13  1  0
 14 15  1  0
 15 16  2  0
 16 17  1  0
  2 13  1  0
  1 15  1  0
 20 19  1  0
 20 18  2  0
 21 20  1  0
  6 19  1  0
M  END
>  <generation_date>  (78) 
None

>  <inchikey>  (78) 
CSDJQHHUIHTKKG-UHFFFAOYSA-N

>  <ref_mols>  (78) 
cx0864a,cx0553a

>  <tags>  (78) 
['butcher: adenine', 'pure_merges', 'fragmenstein', 'select (HA) [batch1_adenine]', 'select (DF) [batch1_adenine]', 'raw']

>  <ref_pdb>  (78) 
cx0300a

>  <alias>  (78) 
cx0864a-cx0553a

>  <submitter_name>  (78) 
None

>  <HIPPO ID>  (78) 
1088

>  <original ID>  (78) 
cx0864a-cx0553a

>  <method>  (78) 
None

>  <ref_url>  (78) 
None

>  <submitter_email>  (78) 
None

>  <original SMILES>  (78) 
Cc1cc2c(cc1-c1n[nH]cc1CC(N)=O)N(C#N)CO2

$$$$
cx0864a-cx0756a
     RDKit          3D

 18 21  0  0  0  0  0  0  0  0999 V2000
   14.8193    6.9443   12.5820 C   0  0  0  0  0  0  0  0  0  0  0  0
   15.5143   11.4303   17.4073 N   0  0  0  0  0  0  0  0  0  0  0  0
   15.6569   10.1541   17.5113 C   0  0  0  0  0  0  0  0  0  0  0  0
   15.4377    9.5272   16.1971 C   0  0  0  0  0  0  0  0  0  0  0  0
   15.1423   10.6540   15.3192 C   0  0  0  0  0  0  0  0  0  0  0  0
   15.1951   11.7472   16.0373 N   0  0  0  0  0  0  0  0  0  0  0  0
   14.8484    9.6350    9.5012 C   0  0  0  0  0  0  0  0  0  0  0  0
   14.6995   11.0215    9.8066 O   0  0  0  0  0  0  0  0  0  0  0  0
   14.7112   11.0028   11.1628 C   0  0  0  0  0  0  0  0  0  0  0  0
   14.8866    9.7421   11.6966 C   0  0  0  0  0  0  0  0  0  0  0  0
   14.9806    8.8227   10.6783 O   0  0  0  0  0  0  0  0  0  0  0  0
   14.5136   12.0940   11.9566 C   0  0  0  0  0  0  0  0  0  0  0  0
   14.6111   11.9097   13.3264 C   0  0  0  0  0  0  0  0  0  0  0  0
   14.8843   10.6310   13.8863 C   0  0  0  0  0  0  0  0  0  0  0  0
   14.9538    9.4756   13.0824 C   0  0  0  0  0  0  0  0  0  0  0  0
   15.5223    8.2606   16.0270 N   0  0  0  0  0  0  0  0  0  0  0  0
   15.2933    7.6462   14.8415 C   0  0  0  0  0  0  0  0  0  0  0  0
   15.0517    8.0672   13.5872 C   0  0  0  0  0  0  0  0  0  0  0  0
  2  3  2  0
  2  6  1  0
  3  4  1  0
  4  5  1  0
  5 14  1  0
  5  6  2  0
  7  8  1  0
  7 11  1  0
  8  9  1  0
  9 12  2  0
  9 10  1  0
 10 15  2  0
 10 11  1  0
 12 13  1  0
 13 14  2  0
 14 15  1  0
 16 17  1  0
 17 18  2  0
 18  1  1  0
  4 16  2  0
 15 18  1  0
M  END
>  <generation_date>  (79) 
None

>  <inchikey>  (79) 
YYFHFXCXRBQSCG-UHFFFAOYSA-N

>  <ref_mols>  (79) 
cx0864a,cx0756a

>  <tags>  (79) 
['butcher: adenine', 'pure_merges', 'fragmenstein', 'select (HA) [batch1_adenine]', 'select (DF) [batch1_adenine]', 'raw']

>  <ref_pdb>  (79) 
cx0300a

>  <alias>  (79) 
cx0864a-cx0756a

>  <submitter_name>  (79) 
None

>  <HIPPO ID>  (79) 
1093

>  <original ID>  (79) 
cx0864a-cx0756a

>  <method>  (79) 
None

>  <ref_url>  (79) 
None

>  <submitter_email>  (79) 
None

>  <original SMILES>  (79) 
Cc1cnc2cnnc-2c2ccc3c(c12)OCO3

$$$$
cx0864a-cx1316a
     RDKit          3D

 16 18  0  0  0  0  0  0  0  0999 V2000
   14.6111    7.9667   10.6842 C   0  0  0  0  0  0  0  0  0  0  0  0
   14.6388   13.1614   14.7055 O   0  0  0  0  0  0  0  0  0  0  0  0
   15.6208   10.8378   17.6791 N   0  0  0  0  0  0  0  0  0  0  0  0
   15.5078    9.4868   17.5829 C   0  0  0  0  0  0  0  0  0  0  0  0
   15.2583    9.2201   16.2589 C   0  0  0  0  0  0  0  0  0  0  0  0
   15.2291   10.4827   15.6137 C   0  0  0  0  0  0  0  0  0  0  0  0
   15.4531   11.4695   16.5069 N   0  0  0  0  0  0  0  0  0  0  0  0
   14.6432   10.2581    9.6711 C   0  0  0  0  0  0  0  0  0  0  0  0
   14.5070   11.5990   10.1871 O   0  0  0  0  0  0  0  0  0  0  0  0
   14.6225   11.4411   11.5391 C   0  0  0  0  0  0  0  0  0  0  0  0
   14.8976   10.1277   11.8794 C   0  0  0  0  0  0  0  0  0  0  0  0
   15.0365    9.3410   10.7360 N   0  0  0  0  0  0  0  0  0  0  0  0
   14.4676   12.4419   12.4718 C   0  0  0  0  0  0  0  0  0  0  0  0
   14.6826   12.1195   13.8056 C   0  0  0  0  0  0  0  0  0  0  0  0
   14.9748   10.7940   14.2026 C   0  0  0  0  0  0  0  0  0  0  0  0
   15.0435    9.7857   13.2179 C   0  0  0  0  0  0  0  0  0  0  0  0
  3  4  1  0
  3  7  1  0
  4  5  2  0
  5  6  1  0
  6 15  1  0
  6  7  2  0
  8  9  1  0
  8 12  1  0
  9 10  1  0
 10 13  2  0
 10 11  1  0
 11 16  2  0
 11 12  1  0
 13 14  1  0
 14 15  2  0
 15 16  1  0
 12  1  1  0
  2 14  1  0
M  END
>  <generation_date>  (80) 
None

>  <inchikey>  (80) 
NVQMRRWHILUSNV-UHFFFAOYSA-N

>  <ref_mols>  (80) 
cx0864a,cx1316a

>  <tags>  (80) 
['butcher: adenine', 'pure_merges', 'fragmenstein', 'select (DF) [batch1_adenine]', 'raw']

>  <ref_pdb>  (80) 
cx0300a

>  <alias>  (80) 
cx0864a-cx1316a

>  <submitter_name>  (80) 
None

>  <HIPPO ID>  (80) 
1094

>  <original ID>  (80) 
cx0864a-cx1316a

>  <method>  (80) 
None

>  <ref_url>  (80) 
None

>  <submitter_email>  (80) 
None

>  <original SMILES>  (80) 
CN1COc2cc(O)c(-c3cc[nH]n3)cc21

$$$$
cx0864a-cx1268a
     RDKit          3D

 16 18  0  0  0  0  0  0  0  0999 V2000
   15.7193    7.4692   10.7459 O   0  0  0  0  0  0  0  0  0  0  0  0
   13.6118    7.8785   10.2694 O   0  0  0  0  0  0  0  0  0  0  0  0
   15.5436   11.1803   17.2220 N   0  0  0  0  0  0  0  0  0  0  0  0
   15.3665    9.8391   17.3571 C   0  0  0  0  0  0  0  0  0  0  0  0
   15.0749    9.3723   16.0985 C   0  0  0  0  0  0  0  0  0  0  0  0
   15.0952   10.5119   15.2489 C   0  0  0  0  0  0  0  0  0  0  0  0
   15.3834   11.6164   15.9638 N   0  0  0  0  0  0  0  0  0  0  0  0
   15.2002    9.4516    9.3407 C   0  0  0  0  0  0  0  0  0  0  0  0
   14.8426   10.8095    9.6745 O   0  0  0  0  0  0  0  0  0  0  0  0
   14.7630   10.8010   11.0386 C   0  0  0  0  0  0  0  0  0  0  0  0
   14.8308    9.5383   11.6074 C   0  0  0  0  0  0  0  0  0  0  0  0
   14.8323    8.5252   10.5064 C   0  0  0  0  0  0  0  0  0  0  0  0
   14.6158   11.9407   11.7949 C   0  0  0  0  0  0  0  0  0  0  0  0
   14.6664   11.8244   13.1829 C   0  0  0  0  0  0  0  0  0  0  0  0
   14.8745   10.5732   13.7987 C   0  0  0  0  0  0  0  0  0  0  0  0
   14.9064    9.4123   12.9971 C   0  0  0  0  0  0  0  0  0  0  0  0
  3  4  1  0
  3  7  1  0
  4  5  2  0
  5  6  1  0
  6 15  1  0
  6  7  2  0
  8  9  1  0
  8 12  1  0
  9 10  1  0
 10 13  2  0
 10 11  1  0
 11 16  2  0
 11 12  1  0
 13 14  1  0
 14 15  2  0
 15 16  1  0
 12  2  1  0
  1 12  1  0
M  END
>  <generation_date>  (81) 
None

>  <inchikey>  (81) 
RWFIETVEIISNIP-UHFFFAOYSA-N

>  <ref_mols>  (81) 
cx0864a,cx1268a

>  <tags>  (81) 
['butcher: adenine', 'pure_merges', 'fragmenstein', 'select (JA) [batch1_adenine]', 'select (DF) [batch1_adenine]', 'raw']

>  <ref_pdb>  (81) 
cx0300a

>  <alias>  (81) 
cx0864a-cx1268a

>  <submitter_name>  (81) 
None

>  <HIPPO ID>  (81) 
1096

>  <original ID>  (81) 
cx0864a-cx1268a

>  <method>  (81) 
None

>  <ref_url>  (81) 
None

>  <submitter_email>  (81) 
None

>  <original SMILES>  (81) 
OC1(O)COc2ccc(-c3cc[nH]n3)cc21

$$$$
cx1444a-cx1406a
     RDKit          3D

 12 13  0  0  0  0  0  0  0  0999 V2000
   14.8712    9.5445    9.5211 C   0  0  0  0  0  0  0  0  0  0  0  0
   14.2096   12.4801   10.5365 N   0  0  0  0  0  0  0  0  0  0  0  0
   14.8899    7.9308   12.0973 C   0  0  0  0  0  0  0  0  0  0  0  0
   14.5483   11.4311   11.2944 C   0  0  0  0  0  0  0  0  0  0  0  0
   14.8086   10.1427   10.8808 C   0  0  0  0  0  0  0  0  0  0  0  0
   14.8753    9.3851   12.0433 N   0  0  0  0  0  0  0  0  0  0  0  0
   14.8873   10.2159   13.1563 C   0  0  0  0  0  0  0  0  0  0  0  0
   14.6275   11.5057   12.6982 C   0  0  0  0  0  0  0  0  0  0  0  0
   14.5166   12.5696   13.6140 C   0  0  0  0  0  0  0  0  0  0  0  0
   14.7336   12.3290   14.9664 C   0  0  0  0  0  0  0  0  0  0  0  0
   15.0197   11.0404   15.4069 C   0  0  0  0  0  0  0  0  0  0  0  0
   15.0751    9.9567   14.5205 C   0  0  0  0  0  0  0  0  0  0  0  0
  4  5  2  0
  4  8  1  0
  5  1  1  0
  5  6  1  0
  6  7  1  0
  7 12  1  0
  7  8  2  0
  8  9  1  0
  9 10  2  0
 10 11  1  0
 11 12  2  0
  2  4  1  0
  3  6  1  0
M  END
>  <generation_date>  (82) 
None

>  <inchikey>  (82) 
SRXBNHHGSYONRB-UHFFFAOYSA-N

>  <ref_mols>  (82) 
cx1444a,cx1406a

>  <tags>  (82) 
['butcher: adenine', 'pure_merges', 'fragmenstein', 'select (JA) [batch1_adenine]', 'raw']

>  <ref_pdb>  (82) 
cx0300a

>  <alias>  (82) 
cx1444a-cx1406a

>  <submitter_name>  (82) 
None

>  <HIPPO ID>  (82) 
1116

>  <original ID>  (82) 
cx1444a-cx1406a

>  <method>  (82) 
None

>  <ref_url>  (82) 
None

>  <submitter_email>  (82) 
None

>  <original SMILES>  (82) 
Cc1c(N)c2ccccc2n1C

$$$$
cx1444a-cx0756a
     RDKit          3D

 14 14  0  0  0  0  0  0  0  0999 V2000
   15.3728    9.6884    8.9875 C   0  0  0  0  0  0  0  0  0  0  0  0
   14.8787    5.7676   13.7512 C   0  0  0  0  0  0  0  0  0  0  0  0
   14.8302   11.1225   10.8642 N   0  0  0  0  0  0  0  0  0  0  0  0
   14.4957    9.8842   10.1732 C   0  0  2  0  0  0  0  0  0  0  0  0
   14.4476    8.5560   10.7651 N   0  0  0  0  0  0  0  0  0  0  0  0
   15.0237   10.2545   13.1388 C   0  0  0  0  0  0  0  0  0  0  0  0
   14.6991   11.2770   12.2478 C   0  0  0  0  0  0  0  0  0  0  0  0
   14.3968   12.5053   12.8232 C   0  0  0  0  0  0  0  0  0  0  0  0
   14.4420   12.6765   14.2132 C   0  0  0  0  0  0  0  0  0  0  0  0
   14.7767   11.6059   15.0547 C   0  0  0  0  0  0  0  0  0  0  0  0
   15.0206   10.3407   14.5294 C   0  0  0  0  0  0  0  0  0  0  0  0
   15.3824    9.2544   15.3462 N   0  0  0  0  0  0  0  0  0  0  0  0
   14.7849    7.9165   15.1342 C   0  0  0  0  0  0  0  0  0  0  0  0
   15.0992    7.2617   13.7946 C   0  0  0  0  0  0  0  0  0  0  0  0
  3  4  1  0
  3  7  1  0
  4  1  1  6
  4  5  1  0
  6 11  2  0
  6  7  1  0
  7  8  2  0
  8  9  1  0
  9 10  2  0
 10 11  1  0
 12 13  1  0
 13 14  1  0
 14  2  1  0
 11 12  1  0
M  END
>  <generation_date>  (83) 
None

>  <inchikey>  (83) 
SFSHXZUXGGZRLN-VIFPVBQESA-N

>  <ref_mols>  (83) 
cx1444a,cx0756a

>  <tags>  (83) 
['butcher: adenine', 'select (DF) [batch4_others]', 'pure_merges', 'fragmenstein', 'butcher: oxyanion', 'raw']

>  <ref_pdb>  (83) 
cx0300a

>  <alias>  (83) 
cx1444a-cx0756a

>  <submitter_name>  (83) 
None

>  <HIPPO ID>  (83) 
1120

>  <original ID>  (83) 
cx1444a-cx0756a

>  <method>  (83) 
None

>  <ref_url>  (83) 
None

>  <submitter_email>  (83) 
None

>  <original SMILES>  (83) 
CCCNc1cccc(N[C@@H](C)N)c1

$$$$
cx1305a-cx1371a
     RDKit          3D

 11 12  0  0  0  0  0  0  0  0999 V2000
   14.8247   10.5134   15.2131 O   0  0  0  0  0  0  0  0  0  0  0  0
   15.1294    7.9282   13.6272 Cl  0  0  0  0  0  0  0  0  0  0  0  0
   14.7690   10.6522   13.8542 C   0  0  0  0  0  0  0  0  0  0  0  0
   14.9252    9.5348   13.0215 C   0  0  0  0  0  0  0  0  0  0  0  0
   14.8923    9.7436   11.6517 C   0  0  0  0  0  0  0  0  0  0  0  0
   14.7196   10.9977   11.1231 C   0  0  0  0  0  0  0  0  0  0  0  0
   14.5032   12.0937   11.9253 C   0  0  0  0  0  0  0  0  0  0  0  0
   14.5313   11.9242   13.3103 C   0  0  0  0  0  0  0  0  0  0  0  0
   14.8743    9.5942    9.4849 C   0  0  0  0  0  0  0  0  0  0  0  0
   14.7317   10.9953    9.7663 O   0  0  0  0  0  0  0  0  0  0  0  0
   15.0010    8.7934   10.6741 O   0  0  0  0  0  0  0  0  0  0  0  0
  3  1  1  0
  3  8  2  0
  3  4  1  0
  4  5  2  0
  5  6  1  0
  5 11  1  0
  6  7  2  0
  6 10  1  0
  7  8  1  0
  9 10  1  0
  9 11  1  0
  2  4  1  0
M  END
>  <generation_date>  (84) 
None

>  <inchikey>  (84) 
MCNYXXKSYJPETB-UHFFFAOYSA-N

>  <ref_mols>  (84) 
cx1371a,cx1305a

>  <tags>  (84) 
['butcher: adenine', 'pure_merges', 'fragmenstein', 'select (DF) [batch1_adenine]', 'raw']

>  <ref_pdb>  (84) 
cx0300a

>  <alias>  (84) 
cx1305a-cx1371a

>  <submitter_name>  (84) 
None

>  <HIPPO ID>  (84) 
1127

>  <original ID>  (84) 
cx1305a-cx1371a

>  <method>  (84) 
None

>  <ref_url>  (84) 
None

>  <submitter_email>  (84) 
None

>  <original SMILES>  (84) 
Oc1ccc2c(c1Cl)OCO2

$$$$
cx1305a-cx0404a
     RDKit          3D

 14 15  0  0  0  0  0  0  0  0999 V2000
   15.0202   11.0189   15.6757 O   0  0  0  0  0  0  0  0  0  0  0  0
   15.6195    6.1545   14.4495 C   0  0  0  0  0  0  0  0  0  0  0  0
   14.8903    7.2643   13.9541 O   0  0  0  0  0  0  0  0  0  0  0  0
   15.3215    8.4827   14.5486 C   0  0  0  0  0  0  0  0  0  0  0  0
   14.3487   13.2059   11.4700 N   0  0  0  0  0  0  0  0  0  0  0  0
   14.8446   10.9330   14.3224 C   0  0  0  0  0  0  0  0  0  0  0  0
   14.9769    9.6786   13.7010 C   0  0  0  0  0  0  0  0  0  0  0  0
   14.8889    9.6695   12.3103 C   0  0  0  0  0  0  0  0  0  0  0  0
   14.6974   10.8285   11.5989 C   0  0  0  0  0  0  0  0  0  0  0  0
   14.4455   12.0320   12.2243 C   0  0  0  0  0  0  0  0  0  0  0  0
   14.5627   12.0958   13.6034 C   0  0  0  0  0  0  0  0  0  0  0  0
   14.8723    9.2260   10.1632 C   0  0  0  0  0  0  0  0  0  0  0  0
   14.7399   10.6530   10.2436 O   0  0  0  0  0  0  0  0  0  0  0  0
   14.9711    8.5983   11.4618 O   0  0  0  0  0  0  0  0  0  0  0  0
  3  2  1  0
  4  3  1  0
  6  1  1  0
  6 11  2  0
  6  7  1  0
  7  8  2  0
  8  9  1  0
  8 14  1  0
  9 10  2  0
  9 13  1  0
 10 11  1  0
 12 13  1  0
 12 14  1  0
 10  5  1  0
  4  7  1  0
M  END
>  <generation_date>  (85) 
None

>  <inchikey>  (85) 
INMYRFOTVXCURM-UHFFFAOYSA-N

>  <ref_mols>  (85) 
cx1305a,cx0404a

>  <tags>  (85) 
['butcher: adenine', 'pure_merges', 'fragmenstein', 'select (DF) [batch1_adenine]', 'raw']

>  <ref_pdb>  (85) 
cx0300a

>  <alias>  (85) 
cx1305a-cx0404a

>  <submitter_name>  (85) 
None

>  <HIPPO ID>  (85) 
1129

>  <original ID>  (85) 
cx1305a-cx0404a

>  <method>  (85) 
None

>  <ref_url>  (85) 
None

>  <submitter_email>  (85) 
None

>  <original SMILES>  (85) 
COCc1c(O)cc(N)c2c1OCO2

$$$$
cx1305a-cx0892a
     RDKit          3D

 19 21  0  0  0  0  0  0  0  0999 V2000
   14.9323   10.2962   15.1764 O   0  0  0  0  0  0  0  0  0  0  0  0
   15.4619    7.3279   12.2381 O   0  0  0  0  0  0  0  0  0  0  0  0
   15.0188    8.1085   13.0731 C   0  0  0  0  0  0  0  0  0  0  0  0
   14.1672    6.2896   14.4231 C   0  0  0  0  0  0  0  0  0  0  0  0
   14.5033    7.6879   14.2778 N   0  0  0  0  0  0  0  0  0  0  0  0
   14.8133   10.5546   13.8381 C   0  0  0  0  0  0  0  0  0  0  0  0
   14.9433    9.5725   12.8420 C   0  0  0  0  0  0  0  0  0  0  0  0
   14.8915    9.9880   11.5268 C   0  0  0  0  0  0  0  0  0  0  0  0
   14.6488   11.2953   11.2009 C   0  0  0  0  0  0  0  0  0  0  0  0
   14.4341   12.2559   12.1629 C   0  0  0  0  0  0  0  0  0  0  0  0
   14.5348   11.8843   13.5017 C   0  0  0  0  0  0  0  0  0  0  0  0
   14.6844   10.1168    9.3817 C   0  0  0  0  0  0  0  0  0  0  0  0
   14.5709   11.4661    9.8612 O   0  0  0  0  0  0  0  0  0  0  0  0
   14.9954    9.1937   10.4227 O   0  0  0  0  0  0  0  0  0  0  0  0
   12.3911    5.4676   12.7248 C   0  0  0  0  0  0  0  0  0  0  0  0
   12.7842    6.0996   13.8872 C   0  0  0  0  0  0  0  0  0  0  0  0
   11.4436    6.7653   14.7275 S   0  0  0  0  0  0  0  0  0  0  0  0
   10.3451    6.1886   13.5556 C   0  0  0  0  0  0  0  0  0  0  0  0
   10.9805    5.5208   12.5344 C   0  0  0  0  0  0  0  0  0  0  0  0
  3  2  2  0
  5  4  1  0
  5  3  1  0
  6  1  1  0
  6 11  2  0
  6  7  1  0
  7  8  2  0
  8  9  1  0
  8 14  1  0
  9 10  2  0
  9 13  1  0
 10 11  1  0
 12 13  1  0
 12 14  1  0
 15 16  2  0
 15 19  1  0
 16  4  1  0
 16 17  1  0
 17 18  1  0
 18 19  2  0
  3  7  1  0
M  END
>  <generation_date>  (86) 
None

>  <inchikey>  (86) 
LSBSLADJXDRYPT-UHFFFAOYSA-N

>  <ref_mols>  (86) 
cx1305a,cx0892a

>  <tags>  (86) 
['butcher: adenine', 'select (DF) [batch4_others]', 'pure_merges', 'butcher: phosphate', 'fragmenstein', 'select (HA) [batch4_others]', 'raw']

>  <ref_pdb>  (86) 
cx0300a

>  <alias>  (86) 
cx1305a-cx0892a

>  <submitter_name>  (86) 
None

>  <HIPPO ID>  (86) 
1130

>  <original ID>  (86) 
cx1305a-cx0892a

>  <method>  (86) 
None

>  <ref_url>  (86) 
None

>  <submitter_email>  (86) 
None

>  <original SMILES>  (86) 
O=C(NCc1cccs1)c1c(O)ccc2c1OCO2

$$$$
cx1305a-cx1410a
     RDKit          3D

 12 13  0  0  0  0  0  0  0  0999 V2000
   14.9107   10.3737   15.4059 O   0  0  0  0  0  0  0  0  0  0  0  0
   14.4116   13.1999   11.5436 N   0  0  0  0  0  0  0  0  0  0  0  0
   14.1671    7.5656   11.0993 F   0  0  0  0  0  0  0  0  0  0  0  0
   14.7990   10.5236   14.0556 C   0  0  0  0  0  0  0  0  0  0  0  0
   14.9452    9.3887   13.2532 C   0  0  0  0  0  0  0  0  0  0  0  0
   14.8997    9.5531   11.8770 C   0  0  0  0  0  0  0  0  0  0  0  0
   14.7040   10.8084   11.3418 C   0  0  0  0  0  0  0  0  0  0  0  0
   14.4664   11.9233   12.1277 C   0  0  0  0  0  0  0  0  0  0  0  0
   14.5627   11.7858   13.5066 C   0  0  0  0  0  0  0  0  0  0  0  0
   14.7588    9.3729    9.6757 C   0  0  0  0  0  0  0  0  0  0  0  0
   14.7204   10.7937    9.9704 O   0  0  0  0  0  0  0  0  0  0  0  0
   15.1349    8.5936   10.8621 N   0  0  0  0  0  0  0  0  0  0  0  0
  4  1  1  0
  4  9  2  0
  4  5  1  0
  5  6  2  0
  6  7  1  0
  6 12  1  0
  7  8  2  0
  7 11  1  0
  8  9  1  0
 10 11  1  0
 10 12  1  0
  2  8  1  0
  3 12  1  0
M  END
>  <generation_date>  (87) 
None

>  <inchikey>  (87) 
LYCREJRCENYTSV-UHFFFAOYSA-N

>  <ref_mols>  (87) 
cx1305a,cx1410a

>  <tags>  (87) 
['butcher: adenine', 'pure_merges', 'fragmenstein', 'select (HA) [batch1_adenine]', 'raw']

>  <ref_pdb>  (87) 
cx0300a

>  <alias>  (87) 
cx1305a-cx1410a

>  <submitter_name>  (87) 
None

>  <HIPPO ID>  (87) 
1133

>  <original ID>  (87) 
cx1305a-cx1410a

>  <method>  (87) 
None

>  <ref_url>  (87) 
None

>  <submitter_email>  (87) 
None

>  <original SMILES>  (87) 
Nc1cc(O)cc2c1OCN2F

$$$$
cx1305a-cx0406a
     RDKit          3D

 18 20  0  0  0  0  0  0  0  0999 V2000
   14.6796   11.3812   14.9948 O   0  0  0  0  0  0  0  0  0  0  0  0
   11.2614    6.6694   13.3609 O   0  0  0  0  0  0  0  0  0  0  0  0
   11.8334    5.7443   12.4473 C   0  0  0  0  0  0  0  0  0  0  0  0
   14.2844    7.3528   11.2064 N   0  0  0  0  0  0  0  0  0  0  0  0
   14.6574   11.2206   13.6392 C   0  0  0  0  0  0  0  0  0  0  0  0
   14.8914    9.9409   13.1358 C   0  0  0  0  0  0  0  0  0  0  0  0
   14.8697    9.7415   11.7608 C   0  0  0  0  0  0  0  0  0  0  0  0
   14.7189   10.8411   10.9352 C   0  0  0  0  0  0  0  0  0  0  0  0
   14.4315   12.0999   11.4140 C   0  0  0  0  0  0  0  0  0  0  0  0
   14.3924   12.2974   12.7913 C   0  0  0  0  0  0  0  0  0  0  0  0
   15.0510    9.1176    9.6241 C   0  0  0  0  0  0  0  0  0  0  0  0
   14.8072   10.5375    9.6107 O   0  0  0  0  0  0  0  0  0  0  0  0
   15.0475    8.5457   11.0045 N   0  0  0  0  0  0  0  0  0  0  0  0
   15.5097    6.3918   13.1757 C   0  0  0  0  0  0  0  0  0  0  0  0
   14.1843    6.8645   12.5798 C   0  0  2  0  0  0  0  0  0  0  0  0
   13.3344    5.5796   12.6960 C   0  0  1  0  0  0  0  0  0  0  0  0
   13.6651    5.1123   14.1221 C   0  0  0  0  0  0  0  0  0  0  0  0
   15.0880    5.5956   14.4061 C   0  0  0  0  0  0  0  0  0  0  0  0
  3  2  1  0
  5  1  1  0
  5 10  2  0
  5  6  1  0
  6  7  2  0
  7  8  1  0
  7 13  1  0
  8  9  2  0
  8 12  1  0
  9 10  1  0
 11 12  1  0
 11 13  1  0
 14 15  1  0
 14 18  1  0
 15 16  1  0
 15  4  1  6
 16 17  1  0
 16  3  1  1
 17 18  1  0
  4 13  1  0
M  END
>  <generation_date>  (88) 
None

>  <inchikey>  (88) 
SYSAKRAZLVCXOZ-GXSJLCMTSA-N

>  <ref_mols>  (88) 
cx1305a,cx0406a

>  <tags>  (88) 
['butcher: adenine', 'pure_merges', 'butcher: phosphate', 'fragmenstein', 'select (HA) [batch4_others]', 'butcher: oxyanion', 'raw']

>  <ref_pdb>  (88) 
cx0300a

>  <alias>  (88) 
cx1305a-cx0406a

>  <submitter_name>  (88) 
None

>  <HIPPO ID>  (88) 
1140

>  <original ID>  (88) 
cx1305a-cx0406a

>  <method>  (88) 
None

>  <ref_url>  (88) 
None

>  <submitter_email>  (88) 
None

>  <original SMILES>  (88) 
OC[C@@H]1CCC[C@H]1NN1COc2ccc(O)cc21

$$$$
cx0632a-cx1118a
     RDKit          3D

 21 23  0  0  0  0  0  0  0  0999 V2000
   16.8170    3.8657   16.4590 N   0  0  0  0  0  0  0  0  0  0  0  0
   16.0752    5.0857   16.1781 C   0  0  0  0  0  0  0  0  0  0  0  0
   16.3473    2.7159   15.6740 C   0  0  2  0  0  0  0  0  0  0  0  0
   17.0245   -2.0680   18.4334 C   0  0  0  0  0  0  0  0  0  0  0  0
   17.1918   -3.2399   19.1786 C   0  0  0  0  0  0  0  0  0  0  0  0
   18.4101   -3.9161   19.1674 C   0  0  0  0  0  0  0  0  0  0  0  0
   19.4697   -3.4231   18.4100 C   0  0  0  0  0  0  0  0  0  0  0  0
   19.3154   -2.2455   17.6742 C   0  0  0  0  0  0  0  0  0  0  0  0
   18.0940   -1.5535   17.6878 C   0  0  0  0  0  0  0  0  0  0  0  0
   17.2096    1.5489   16.0244 C   0  0  0  0  0  0  0  0  0  0  0  0
   18.5797    1.3295   15.7737 C   0  0  0  0  0  0  0  0  0  0  0  0
   19.0534    0.2299   16.3596 N   0  0  0  0  0  0  0  0  0  0  0  0
   17.9762   -0.3310   16.9659 N   0  0  0  0  0  0  0  0  0  0  0  0
   16.8546    0.4544   16.7981 C   0  0  0  0  0  0  0  0  0  0  0  0
   18.5487    3.9965   11.6729 O   0  0  0  0  0  0  0  0  0  0  0  0
   17.5130    3.2720   13.5276 N   0  0  0  0  0  0  0  0  0  0  0  0
   16.3551    2.9901   14.1747 C   0  0  0  0  0  0  0  0  0  0  0  0
   15.1122    3.2636   13.5932 C   0  0  0  0  0  0  0  0  0  0  0  0
   15.0323    3.8140   12.3189 C   0  0  0  0  0  0  0  0  0  0  0  0
   16.2010    4.1004   11.6513 C   0  0  0  0  0  0  0  0  0  0  0  0
   17.3756    3.8057   12.3012 C   0  0  0  0  0  0  0  0  0  0  0  0
  2  1  1  0
  3  1  1  1
  4  9  2  0
  4  5  1  0
  5  6  2  0
  6  7  1  0
  7  8  2  0
  8  9  1  0
  9 13  1  0
 10  3  1  0
 10 11  1  0
 10 14  2  0
 11 12  2  0
 12 13  1  0
 13 14  1  0
 16 21  2  0
 16 17  1  0
 17 18  2  0
 18 19  1  0
 19 20  2  0
 20 21  1  0
 21 15  1  0
  3 17  1  0
M  END
>  <generation_date>  (89) 
None

>  <inchikey>  (89) 
VSMLKTUVJLIHFO-MRXNPFEDSA-N

>  <ref_mols>  (89) 
cx0632a,cx1118a

>  <tags>  (89) 
['pure_merges', 'fragmenstein', 'butcher: oxyanion', 'select (HA) [batch3_oxyanion]', 'raw']

>  <ref_pdb>  (89) 
cx0300a

>  <alias>  (89) 
cx0632a-cx1118a

>  <submitter_name>  (89) 
None

>  <HIPPO ID>  (89) 
1152

>  <original ID>  (89) 
cx0632a-cx1118a

>  <method>  (89) 
None

>  <ref_url>  (89) 
None

>  <submitter_email>  (89) 
None

>  <original SMILES>  (89) 
CN[C@H](c1cnn(-c2ccccc2)c1)c1cccc(O)n1

$$$$
cx0632a-cx0540a
     RDKit          3D

 17 18  0  0  0  0  0  0  0  0999 V2000
   16.0834    3.4477   15.7300 N   0  0  0  0  0  0  0  0  0  0  0  0
   15.6408    4.6006   14.9569 C   0  0  0  0  0  0  0  0  0  0  0  0
   16.8248    2.5296   14.8702 C   0  0  0  0  0  0  0  0  0  0  0  0
   15.6663    0.1551   16.6033 O   0  0  0  0  0  0  0  0  0  0  0  0
   15.7803   -1.3146   18.6601 O   0  0  0  0  0  0  0  0  0  0  0  0
   20.3151   -4.3124   18.1203 F   0  0  0  0  0  0  0  0  0  0  0  0
   16.9605   -1.9626   18.4743 C   0  0  0  0  0  0  0  0  0  0  0  0
   17.0775   -3.1518   19.2045 C   0  0  0  0  0  0  0  0  0  0  0  0
   18.2210   -3.9354   19.1079 C   0  0  0  0  0  0  0  0  0  0  0  0
   19.2548   -3.5125   18.2898 C   0  0  0  0  0  0  0  0  0  0  0  0
   19.1813   -2.3004   17.6069 C   0  0  0  0  0  0  0  0  0  0  0  0
   18.0200   -1.5033   17.6862 C   0  0  0  0  0  0  0  0  0  0  0  0
   17.4993    1.5232   15.7289 C   0  0  0  0  0  0  0  0  0  0  0  0
   18.8853    1.3386   15.8618 C   0  0  0  0  0  0  0  0  0  0  0  0
   19.2074    0.2937   16.6150 N   0  0  0  0  0  0  0  0  0  0  0  0
   18.0151   -0.2669   16.9711 N   0  0  0  0  0  0  0  0  0  0  0  0
   16.9487    0.5000   16.4796 C   0  0  0  0  0  0  0  0  0  0  0  0
  2  1  1  0
  3  1  1  0
  7 12  2  0
  7  8  1  0
  8  9  2  0
  9 10  1  0
 10 11  2  0
 11 12  1  0
 12 16  1  0
 13  3  1  0
 13 14  1  0
 13 17  2  0
 14 15  2  0
 15 16  1  0
 16 17  1  0
 17  4  1  0
  5  7  1  0
  6 10  1  0
M  END
>  <generation_date>  (90) 
None

>  <inchikey>  (90) 
GONDGHFORCNQDL-UHFFFAOYSA-N

>  <ref_mols>  (90) 
cx0632a,cx0540a

>  <tags>  (90) 
['pure_merges', 'fragmenstein', 'butcher: oxyanion', 'select (HA) [batch3_oxyanion]', 'select (JA) [batch3_oxyanion]', 'raw']

>  <ref_pdb>  (90) 
cx0300a

>  <alias>  (90) 
cx0632a-cx0540a

>  <submitter_name>  (90) 
None

>  <HIPPO ID>  (90) 
1155

>  <original ID>  (90) 
cx0632a-cx0540a

>  <method>  (90) 
None

>  <ref_url>  (90) 
None

>  <submitter_email>  (90) 
None

>  <original SMILES>  (90) 
CNCc1cnn(-c2cc(F)ccc2O)c1O

$$$$
cx0632a-cx1135a
     RDKit          3D

 21 23  0  0  0  0  0  0  0  0999 V2000
   16.0365    3.3080   16.5620 N   0  0  0  0  0  0  0  0  0  0  0  0
   16.9321    4.4509   16.4165 C   0  0  0  0  0  0  0  0  0  0  0  0
   16.3240    2.1951   15.6331 C   0  0  2  0  0  0  0  0  0  0  0  0
   17.1296   -2.3617   18.6297 C   0  0  0  0  0  0  0  0  0  0  0  0
   17.2885   -3.5605   19.3286 C   0  0  0  0  0  0  0  0  0  0  0  0
   18.5139   -4.2228   19.3196 C   0  0  0  0  0  0  0  0  0  0  0  0
   19.5911   -3.6846   18.6190 C   0  0  0  0  0  0  0  0  0  0  0  0
   19.4478   -2.4758   17.9359 C   0  0  0  0  0  0  0  0  0  0  0  0
   18.2165   -1.8054   17.9405 C   0  0  0  0  0  0  0  0  0  0  0  0
   17.2882    1.2341   16.2271 C   0  0  0  0  0  0  0  0  0  0  0  0
   18.6850    1.1254   16.1033 C   0  0  0  0  0  0  0  0  0  0  0  0
   19.1812    0.0658   16.7424 N   0  0  0  0  0  0  0  0  0  0  0  0
   18.0972   -0.5673   17.2556 N   0  0  0  0  0  0  0  0  0  0  0  0
   16.9495    0.1509   17.0187 C   0  0  0  0  0  0  0  0  0  0  0  0
   17.1484    5.0462   11.1430 O   0  0  0  0  0  0  0  0  0  0  0  0
   17.8178    2.8687   13.8062 N   0  0  0  0  0  0  0  0  0  0  0  0
   17.9545    3.5325   12.6304 N   0  0  0  0  0  0  0  0  0  0  0  0
   16.9504    4.2050   12.0007 C   0  0  0  0  0  0  0  0  0  0  0  0
   15.5805    3.9012   12.4033 C   0  0  0  0  0  0  0  0  0  0  0  0
   15.3982    3.1762   13.4998 C   0  0  0  0  0  0  0  0  0  0  0  0
   16.6009    2.7226   14.2408 C   0  0  0  0  0  0  0  0  0  0  0  0
  2  1  1  0
  3  1  1  1
  4  9  2  0
  4  5  1  0
  5  6  2  0
  6  7  1  0
  7  8  2  0
  8  9  1  0
  9 13  1  0
 10  3  1  0
 10 11  1  0
 10 14  2  0
 11 12  2  0
 12 13  1  0
 13 14  1  0
 16 21  2  0
 16 17  1  0
 17 18  1  0
 18 15  2  0
 18 19  1  0
 19 20  2  0
 20 21  1  0
  3 21  1  0
M  END
>  <generation_date>  (91) 
None

>  <inchikey>  (91) 
DMSOFTVAFCKEDY-OAHLLOKOSA-N

>  <ref_mols>  (91) 
cx0632a,cx1135a

>  <tags>  (91) 
['pure_merges', 'fragmenstein', 'butcher: oxyanion', 'select (HA) [batch3_oxyanion]', 'raw']

>  <ref_pdb>  (91) 
cx0300a

>  <alias>  (91) 
cx0632a-cx1135a

>  <submitter_name>  (91) 
None

>  <HIPPO ID>  (91) 
1160

>  <original ID>  (91) 
cx0632a-cx1135a

>  <method>  (91) 
None

>  <ref_url>  (91) 
None

>  <submitter_email>  (91) 
None

>  <original SMILES>  (91) 
CN[C@H](c1cnn(-c2ccccc2)c1)c1ccc(=O)[nH]n1

$$$$
cx0632a-cx1131a
     RDKit          3D

 20 22  0  0  0  0  0  0  0  0999 V2000
   16.4676    3.9735   16.1923 N   0  0  0  0  0  0  0  0  0  0  0  0
   15.8154    5.2299   15.8468 C   0  0  0  0  0  0  0  0  0  0  0  0
   16.2556    4.0822   11.0091 O   0  0  0  0  0  0  0  0  0  0  0  0
   16.8627   -1.6104   18.2185 C   0  0  0  0  0  0  0  0  0  0  0  0
   16.9117   -2.7765   18.9940 C   0  0  0  0  0  0  0  0  0  0  0  0
   18.0800   -3.5330   19.0790 C   0  0  0  0  0  0  0  0  0  0  0  0
   19.2138   -3.1275   18.3842 C   0  0  0  0  0  0  0  0  0  0  0  0
   19.1793   -1.9576   17.6206 C   0  0  0  0  0  0  0  0  0  0  0  0
   18.0072   -1.1809   17.5399 C   0  0  0  0  0  0  0  0  0  0  0  0
   17.4965    1.9113   15.6530 C   0  0  0  0  0  0  0  0  0  0  0  0
   18.8551    1.5396   15.5341 C   0  0  0  0  0  0  0  0  0  0  0  0
   19.1888    0.4658   16.2411 N   0  0  0  0  0  0  0  0  0  0  0  0
   18.0281    0.0300   16.7827 N   0  0  0  0  0  0  0  0  0  0  0  0
   16.9943    0.9113   16.4877 C   0  0  0  0  0  0  0  0  0  0  0  0
   17.7400    3.9353   14.2765 N   0  0  0  0  0  0  0  0  0  0  0  0
   16.7985    3.1327   15.0468 C   0  0  2  0  0  0  0  0  0  0  0  0
   15.5238    2.7421   14.2182 C   0  0  0  0  0  0  0  0  0  0  0  0
   15.3304    3.4662   12.9729 N   0  0  0  0  0  0  0  0  0  0  0  0
   16.4115    3.7737   12.1877 C   0  0  0  0  0  0  0  0  0  0  0  0
   17.7881    3.6406   12.8485 C   0  0  0  0  0  0  0  0  0  0  0  0
  2  1  1  0
  4  9  2  0
  4  5  1  0
  5  6  2  0
  6  7  1  0
  7  8  2  0
  8  9  1  0
  9 13  1  0
 10 11  1  0
 10 14  2  0
 11 12  2  0
 12 13  1  0
 13 14  1  0
 15 20  1  0
 15 16  1  0
 16 17  1  0
 17 18  1  0
 18 19  1  0
 19  3  2  0
 19 20  1  0
 16  1  1  1
 16 10  1  0
M  END
>  <generation_date>  (92) 
None

>  <inchikey>  (92) 
WXVGLKDVPKLHKY-AWEZNQCLSA-N

>  <ref_mols>  (92) 
cx0632a,cx1131a

>  <tags>  (92) 
['pure_merges', 'fragmenstein', 'butcher: oxyanion', 'select (HA) [batch3_oxyanion]', 'raw']

>  <ref_pdb>  (92) 
cx0300a

>  <alias>  (92) 
cx0632a-cx1131a

>  <submitter_name>  (92) 
None

>  <HIPPO ID>  (92) 
1168

>  <original ID>  (92) 
cx0632a-cx1131a

>  <method>  (92) 
None

>  <ref_url>  (92) 
None

>  <submitter_email>  (92) 
None

>  <original SMILES>  (92) 
CN[C@@]1(c2cnn(-c3ccccc3)c2)CNC(=O)CN1

$$$$
cx0632a-cx0316a
     RDKit          3D

 28 31  0  0  0  0  0  0  0  0999 V2000
   15.0575    4.9117   15.7904 C   0  0  0  0  0  0  0  0  0  0  0  0
   16.9758    2.7163   16.2430 C   0  0  0  0  0  0  0  0  0  0  0  0
   13.8723    9.2590    9.0819 C   0  0  0  0  0  0  0  0  0  0  0  0
   18.0118    3.6829   11.5764 O   0  0  0  0  0  0  0  0  0  0  0  0
   14.6697    8.6613   10.2214 C   0  0  0  0  0  0  0  0  0  0  0  0
   15.2225    3.8253   11.0074 C   0  0  0  0  0  0  0  0  0  0  0  0
   17.1204   -2.3099   18.4971 C   0  0  0  0  0  0  0  0  0  0  0  0
   17.2044   -3.4831   19.2517 C   0  0  0  0  0  0  0  0  0  0  0  0
   18.3774   -4.2354   19.2612 C   0  0  0  0  0  0  0  0  0  0  0  0
   19.4773   -3.8169   18.5169 C   0  0  0  0  0  0  0  0  0  0  0  0
   19.4094   -2.6366   17.7752 C   0  0  0  0  0  0  0  0  0  0  0  0
   18.2339   -1.8697   17.7698 C   0  0  0  0  0  0  0  0  0  0  0  0
   17.6837    1.4200   16.3927 C   0  0  0  0  0  0  0  0  0  0  0  0
   19.0359    1.1172   16.1688 C   0  0  0  0  0  0  0  0  0  0  0  0
   19.3674   -0.1053   16.5736 N   0  0  0  0  0  0  0  0  0  0  0  0
   18.2234   -0.6248   17.0846 N   0  0  0  0  0  0  0  0  0  0  0  0
   17.1742    0.2558   16.9370 C   0  0  0  0  0  0  0  0  0  0  0  0
   15.2597    6.3475   10.9864 N   0  0  0  0  0  0  0  0  0  0  0  0
   14.4386    7.2208   10.4490 C   0  0  0  0  0  0  0  0  0  0  0  0
   13.3250    6.6535    9.9093 O   0  0  0  0  0  0  0  0  0  0  0  0
   13.4604    5.2826   10.0759 N   0  0  0  0  0  0  0  0  0  0  0  0
   14.6354    5.1537   10.6991 C   0  0  0  0  0  0  0  0  0  0  0  0
   15.0603    4.1394   13.4452 C   0  0  0  0  0  0  0  0  0  0  0  0
   15.8143    3.7795   12.3437 N   0  0  0  0  0  0  0  0  0  0  0  0
   17.1844    3.5821   12.4737 C   0  0  0  0  0  0  0  0  0  0  0  0
   17.6201    3.1184   13.8166 C   0  0  0  0  0  0  0  0  0  0  0  0
   16.8091    3.3018   14.8697 C   0  0  0  0  0  0  0  0  0  0  0  0
   15.5981    4.0877   14.6692 C   0  0  0  0  0  0  0  0  0  0  0  0
  5  3  1  0
  7 12  2  0
  7  8  1  0
  8  9  2  0
  9 10  1  0
 10 11  2  0
 11 12  1  0
 12 16  1  0
 13  2  1  0
 13 14  1  0
 13 17  2  0
 14 15  2  0
 15 16  1  0
 16 17  1  0
 18 19  2  0
 18 22  1  0
 19  5  1  0
 19 20  1  0
 20 21  1  0
 21 22  2  0
 22  6  1  0
 23 28  2  0
 23 24  1  0
 24  6  1  0
 24 25  1  0
 25 26  1  0
 25  4  2  0
 26 27  2  0
 27 28  1  0
 28  1  1  0
  2 27  1  0
M  END
>  <generation_date>  (93) 
None

>  <inchikey>  (93) 
XZZIEIPBDBERLL-UHFFFAOYSA-N

>  <ref_mols>  (93) 
cx0632a,cx0316a

>  <tags>  (93) 
['butcher: adenine', 'select (DF) [batch4_others]', 'pure_merges', 'fragmenstein', 'butcher: oxyanion', 'raw']

>  <ref_pdb>  (93) 
cx0300a

>  <alias>  (93) 
cx0632a-cx0316a

>  <submitter_name>  (93) 
None

>  <HIPPO ID>  (93) 
1173

>  <original ID>  (93) 
cx0632a-cx0316a

>  <method>  (93) 
None

>  <ref_url>  (93) 
None

>  <submitter_email>  (93) 
None

>  <original SMILES>  (93) 
CCc1nc(Cn2cc(C)c(Cc3cnn(-c4ccccc4)c3)cc2=O)no1

$$$$
cx0824a-cx0300a
     RDKit          3D

 31 35  0  0  0  0  0  0  0  0999 V2000
   16.0071    1.6141   15.7955 N   0  0  0  0  0  0  0  0  0  0  0  0
   18.2679    1.3137   15.9974 O   0  0  0  0  0  0  0  0  0  0  0  0
   17.1263    1.0130   16.3243 C   0  0  0  0  0  0  0  0  0  0  0  0
   16.0269    2.4013   14.5834 C   0  0  0  0  0  0  0  0  0  0  0  0
   14.8486    0.8850   18.0989 F   0  0  0  0  0  0  0  0  0  0  0  0
   14.9583    5.9451   13.6289 N   0  0  0  0  0  0  0  0  0  0  0  0
   14.3734    6.4790   14.8514 C   0  0  1  0  0  0  0  0  0  0  0  0
   18.7899    4.0848   12.2398 O   0  0  0  0  0  0  0  0  0  0  0  0
   15.7767   -0.0846   18.1534 C   0  0  0  0  0  0  0  0  0  0  0  0
   16.8894   -0.0713   17.3116 C   0  0  0  0  0  0  0  0  0  0  0  0
   17.8268   -1.1103   17.4001 C   0  0  0  0  0  0  0  0  0  0  0  0
   17.6440   -2.1465   18.3196 C   0  0  0  0  0  0  0  0  0  0  0  0
   16.5347   -2.1416   19.1646 C   0  0  0  0  0  0  0  0  0  0  0  0
   15.6021   -1.1066   19.0827 C   0  0  0  0  0  0  0  0  0  0  0  0
   16.1843    4.1408   17.2420 C   0  0  0  0  0  0  0  0  0  0  0  0
   15.6871    4.6161   16.0259 C   0  0  0  0  0  0  0  0  0  0  0  0
   14.8239    5.7377   16.0856 C   0  0  0  0  0  0  0  0  0  0  0  0
   14.3202    6.1129   17.3336 C   0  0  0  0  0  0  0  0  0  0  0  0
   14.6940    5.5605   18.5024 N   0  0  0  0  0  0  0  0  0  0  0  0
   15.6569    4.6217   18.4323 C   0  0  0  0  0  0  0  0  0  0  0  0
   16.0374    3.9738   14.6573 C   0  0  1  0  0  0  0  0  0  0  0  0
   17.4203    4.4656   14.1767 C   0  0  0  0  0  0  0  0  0  0  0  0
   17.6631    4.2247   12.6974 C   0  0  0  0  0  0  0  0  0  0  0  0
   16.6218    4.2447   11.8265 N   0  0  0  0  0  0  0  0  0  0  0  0
   15.2570    4.0107   12.2018 C   0  0  0  0  0  0  0  0  0  0  0  0
   14.9570    4.4849   13.6260 C   0  0  2  0  0  0  0  0  0  0  0  0
   15.5085    8.6457   15.8549 C   0  0  0  0  0  0  0  0  0  0  0  0
   14.8026    7.9356   14.8966 C   0  0  0  0  0  0  0  0  0  0  0  0
   14.4709    8.7108   13.7770 N   0  0  0  0  0  0  0  0  0  0  0  0
   14.9185    9.9377   13.9090 C   0  0  0  0  0  0  0  0  0  0  0  0
   15.6938   10.2870   15.3891 S   0  0  0  0  0  0  0  0  0  0  0  0
  3  1  1  0
  3  2  2  0
  4  1  1  0
  7  6  1  0
  9 14  2  0
  9 10  1  0
  9  5  1  0
 10 11  2  0
 10  3  1  0
 11 12  1  0
 12 13  2  0
 13 14  1  0
 15 20  1  0
 15 16  2  0
 16 17  1  0
 17 18  2  0
 18 19  1  0
 19 20  2  0
 21 26  1  0
 21 22  1  0
 22 23  1  0
 23 24  1  0
 23  8  2  0
 24 25  1  0
 26 25  1  6
 26  6  1  0
 27 28  2  0
 27 31  1  0
  7 28  1  1
 28 29  1  0
 29 30  2  0
 30 31  1  0
 21  4  1  1
 21 16  1  0
 17  7  1  0
M  END
>  <generation_date>  (94) 
None

>  <inchikey>  (94) 
OGZPWQWXXRXWGZ-RCZSKKKRSA-N

>  <ref_mols>  (94) 
cx0824a,cx0300a

>  <tags>  (94) 
['butcher: adenine', 'select (DF) [batch4_others]', 'pure_merges', 'fragmenstein', 'butcher: oxyanion', 'raw']

>  <ref_pdb>  (94) 
cx0300a

>  <alias>  (94) 
cx0824a-cx0300a

>  <submitter_name>  (94) 
None

>  <HIPPO ID>  (94) 
1199

>  <original ID>  (94) 
cx0824a-cx0300a

>  <method>  (94) 
None

>  <ref_url>  (94) 
None

>  <submitter_email>  (94) 
None

>  <original SMILES>  (94) 
O=C1C[C@@]2(CNC(=O)c3ccccc3F)c3ccncc3[C@@H](c3cscn3)N[C@H]2CN1

$$$$
cx0824a-cx0406a
     RDKit          3D

 31 34  0  0  0  0  0  0  0  0999 V2000
   16.1716    1.5914   15.6301 N   0  0  0  0  0  0  0  0  0  0  0  0
   18.3896    1.3283   16.1605 O   0  0  0  0  0  0  0  0  0  0  0  0
   17.2134    1.0233   16.3309 C   0  0  0  0  0  0  0  0  0  0  0  0
   16.4113    2.5007   14.5231 C   0  0  0  0  0  0  0  0  0  0  0  0
   16.8061    3.9068   14.9794 C   0  0  0  0  0  0  0  0  0  0  0  0
   14.8587    0.9735   18.0161 F   0  0  0  0  0  0  0  0  0  0  0  0
   14.5434   12.1256   11.8876 C   0  0  0  0  0  0  0  0  0  0  0  0
   11.2929    6.6912   13.4152 O   0  0  0  0  0  0  0  0  0  0  0  0
   11.9709    5.8360   12.5081 C   0  0  0  0  0  0  0  0  0  0  0  0
   14.7147    7.2909   11.6420 N   0  0  0  0  0  0  0  0  0  0  0  0
   15.7481   -0.0291   18.0925 C   0  0  0  0  0  0  0  0  0  0  0  0
   16.8831   -0.0576   17.2863 C   0  0  0  0  0  0  0  0  0  0  0  0
   17.7874   -1.1246   17.4076 C   0  0  0  0  0  0  0  0  0  0  0  0
   17.5538   -2.1466   18.3290 C   0  0  0  0  0  0  0  0  0  0  0  0
   16.4249   -2.0989   19.1441 C   0  0  0  0  0  0  0  0  0  0  0  0
   15.5216   -1.0398   19.0250 C   0  0  0  0  0  0  0  0  0  0  0  0
   16.2455    5.1467   17.1027 C   0  0  0  0  0  0  0  0  0  0  0  0
   15.6838    4.6100   15.7736 C   0  0  1  0  0  0  0  0  0  0  0  0
   14.8055    5.7067   15.0424 C   0  0  1  0  0  0  0  0  0  0  0  0
   14.2968    6.7314   16.1181 C   0  0  0  0  0  0  0  0  0  0  0  0
   13.9374    6.0810   17.3809 N   0  0  0  0  0  0  0  0  0  0  0  0
   15.1143    5.5353   18.0583 C   0  0  0  0  0  0  0  0  0  0  0  0
   14.8611   10.6889    9.9422 N   0  0  0  0  0  0  0  0  0  0  0  0
   14.7694   10.8015   11.2682 C   0  0  0  0  0  0  0  0  0  0  0  0
   14.7835    9.6479   12.0553 N   0  0  0  0  0  0  0  0  0  0  0  0
   14.7631    8.5929   11.2671 C   0  0  0  0  0  0  0  0  0  0  0  0
   14.8297    9.0652    9.6058 S   0  0  0  0  0  0  0  0  0  0  0  0
   15.4437    6.5053   13.8712 C   0  0  0  0  0  0  0  0  0  0  0  0
   14.2581    6.9289   12.9820 C   0  0  2  0  0  0  0  0  0  0  0  0
   13.4298    5.6383   12.9350 C   0  0  1  0  0  0  0  0  0  0  0  0
   13.5774    5.0462   14.3458 C   0  0  0  0  0  0  0  0  0  0  0  0
  3  1  1  0
  3  2  2  0
  4  1  1  0
  5  4  1  0
  9  8  1  0
 11 16  2  0
 11 12  1  0
 11  6  1  0
 12 13  2  0
 12  3  1  0
 13 14  1  0
 14 15  2  0
 15 16  1  0
 17 22  1  0
 17 18  1  0
 19 18  1  0
 18  5  1  6
 19 20  1  1
 20 21  1  0
 21 22  1  0
 23 24  2  0
 23 27  1  0
 24  7  1  0
 24 25  1  0
 25 26  2  0
 26 10  1  0
 26 27  1  0
 28 29  1  0
 29 30  1  0
 29 10  1  6
 30 31  1  0
 30  9  1  1
 19 28  1  0
 19 31  1  0
M  END
>  <generation_date>  (95) 
None

>  <inchikey>  (95) 
FAIKVXHYCBBUTG-XKIVJUNCSA-N

>  <ref_mols>  (95) 
cx0824a,cx0406a

>  <tags>  (95) 
['butcher: adenine', 'select (DF) [batch4_others]', 'pure_merges', 'butcher: phosphate', 'fragmenstein', 'select (HA) [batch4_others]', 'butcher: oxyanion', 'raw']

>  <ref_pdb>  (95) 
cx0300a

>  <alias>  (95) 
cx0824a-cx0406a

>  <submitter_name>  (95) 
None

>  <HIPPO ID>  (95) 
1203

>  <original ID>  (95) 
cx0824a-cx0406a

>  <method>  (95) 
None

>  <ref_url>  (95) 
None

>  <submitter_email>  (95) 
None

>  <original SMILES>  (95) 
Cc1nsc(N[C@@H]2C[C@@]3(CNCC[C@@H]3CCNC(=O)c3ccccc3F)C[C@H]2CO)n1

$$$$
cx1116a-cx0477a
     RDKit          3D

 12 12  0  0  0  0  0  0  0  0999 V2000
   14.7530   11.4693   11.3719 C   0  0  0  0  0  0  0  0  0  0  0  0
   14.4702    8.1380   15.8451 C   0  0  0  0  0  0  0  0  0  0  0  0
   15.9944    8.0860   15.9754 C   0  0  0  0  0  0  0  0  0  0  0  0
   16.5987    7.4347   14.8620 O   0  0  0  0  0  0  0  0  0  0  0  0
   14.7219   11.2143   10.0410 N   0  0  0  0  0  0  0  0  0  0  0  0
   14.7247    9.9283    9.6413 C   0  0  0  0  0  0  0  0  0  0  0  0
   14.7956    8.8694   10.5155 C   0  0  0  0  0  0  0  0  0  0  0  0
   14.8690    9.1603   11.8782 C   0  0  0  0  0  0  0  0  0  0  0  0
   14.8493   10.4867   12.3466 C   0  0  0  0  0  0  0  0  0  0  0  0
   15.0568   10.8589   13.7959 C   0  0  0  0  0  0  0  0  0  0  0  0
   14.1226   10.3106   14.7966 N   0  0  0  0  0  0  0  0  0  0  0  0
   13.9922    8.8806   14.6820 N   0  0  0  0  0  0  0  0  0  0  0  0
  3  2  1  0
  4  3  1  0
  5  6  2  0
  6  7  1  0
  7  8  2  0
  8  9  1  0
 10 11  1  0
 11 12  1  0
 12  2  1  0
  9 10  1  0
  1  9  2  0
  1  5  1  0
M  END
>  <generation_date>  (96) 
None

>  <inchikey>  (96) 
SEEGEKKHDHBILT-UHFFFAOYSA-N

>  <ref_mols>  (96) 
cx1116a,cx0477a

>  <tags>  (96) 
['butcher: adenine', 'pure_merges', 'fragmenstein', 'select (HA) [batch1_adenine]', 'raw']

>  <ref_pdb>  (96) 
cx0300a

>  <alias>  (96) 
cx1116a-cx0477a

>  <submitter_name>  (96) 
None

>  <HIPPO ID>  (96) 
1215

>  <original ID>  (96) 
cx1116a-cx0477a

>  <method>  (96) 
None

>  <ref_url>  (96) 
None

>  <submitter_email>  (96) 
None

>  <original SMILES>  (96) 
OCCNNCc1cccnc1

$$$$
cx1116a-cx0316a
     RDKit          3D

 22 24  0  0  0  0  0  0  0  0999 V2000
   14.4008   12.9351   13.1357 N   0  0  0  0  0  0  0  0  0  0  0  0
   14.6836   11.7428   12.4776 C   0  0  0  0  0  0  0  0  0  0  0  0
   14.7555   11.8231   11.1482 N   0  0  0  0  0  0  0  0  0  0  0  0
   14.8320   10.6656   10.4659 C   0  0  0  0  0  0  0  0  0  0  0  0
   14.7920    9.3965   11.0520 C   0  0  0  0  0  0  0  0  0  0  0  0
   14.8698    9.3592   12.4517 C   0  0  0  0  0  0  0  0  0  0  0  0
   14.8203   10.5526   13.1718 C   0  0  0  0  0  0  0  0  0  0  0  0
   13.7224    8.6131    8.8782 C   0  0  0  0  0  0  0  0  0  0  0  0
   18.3431    4.7331   12.3050 O   0  0  0  0  0  0  0  0  0  0  0  0
   14.2207    8.2317   10.2708 C   0  0  1  0  0  0  0  0  0  0  0  0
   15.9050    3.7045   11.4565 C   0  0  0  0  0  0  0  0  0  0  0  0
   15.4977    6.2053   11.2080 N   0  0  0  0  0  0  0  0  0  0  0  0
   14.6090    6.8240   10.4639 C   0  0  0  0  0  0  0  0  0  0  0  0
   13.7374    5.9661    9.8432 O   0  0  0  0  0  0  0  0  0  0  0  0
   14.1178    4.6951   10.1718 N   0  0  0  0  0  0  0  0  0  0  0  0
   15.1490    4.8825   10.9985 C   0  0  0  0  0  0  0  0  0  0  0  0
   15.5316    3.1709   13.8263 C   0  0  0  0  0  0  0  0  0  0  0  0
   16.3141    3.7601   12.8521 N   0  0  0  0  0  0  0  0  0  0  0  0
   17.5670    4.2782   13.1364 C   0  0  0  0  0  0  0  0  0  0  0  0
   17.9825    4.2493   14.5626 C   0  0  0  0  0  0  0  0  0  0  0  0
   17.1948    3.6801   15.4816 C   0  0  0  0  0  0  0  0  0  0  0  0
   15.9338    3.1077   15.0994 C   0  0  0  0  0  0  0  0  0  0  0  0
  2  1  1  0
  2  7  2  0
  2  3  1  0
  3  4  2  0
  4  5  1  0
  5  6  2  0
  6  7  1  0
 10  8  1  6
 12 13  2  0
 12 16  1  0
 13 10  1  0
 13 14  1  0
 14 15  1  0
 15 16  2  0
 16 11  1  0
 17 22  2  0
 17 18  1  0
 18 11  1  0
 18 19  1  0
 19 20  1  0
 19  9  2  0
 20 21  2  0
 21 22  1  0
  5 10  1  0
M  END
>  <generation_date>  (97) 
None

>  <inchikey>  (97) 
DEYCAJGWGSVJCX-SNVBAGLBSA-N

>  <ref_mols>  (97) 
cx1116a,cx0316a

>  <tags>  (97) 
['butcher: adenine', 'pure_merges', 'fragmenstein', 'select (HA) [batch4_others]', 'butcher: oxyanion', 'raw']

>  <ref_pdb>  (97) 
cx0300a

>  <alias>  (97) 
cx1116a-cx0316a

>  <submitter_name>  (97) 
None

>  <HIPPO ID>  (97) 
1222

>  <original ID>  (97) 
cx1116a-cx0316a

>  <method>  (97) 
None

>  <ref_url>  (97) 
None

>  <submitter_email>  (97) 
None

>  <original SMILES>  (97) 
C[C@H](c1ccc(N)nc1)c1nc(Cn2ccccc2=O)no1

$$$$
cx0760a-cx0317a
     RDKit          3D

 23 25  0  0  0  0  0  0  0  0999 V2000
   19.7153    1.8784   14.9832 C   0  0  0  0  0  0  0  0  0  0  0  0
   15.2586    1.9494   16.8595 O   0  0  0  0  0  0  0  0  0  0  0  0
   18.4034    0.5041   16.4390 N   0  0  0  0  0  0  0  0  0  0  0  0
   18.4321    1.4410   15.5551 C   0  0  0  0  0  0  0  0  0  0  0  0
   17.0789    1.9860   15.2198 C   0  0  1  0  0  0  0  0  0  0  0  0
   16.3222    1.5377   16.4358 C   0  0  0  0  0  0  0  0  0  0  0  0
   17.1214    0.4656   16.9045 N   0  0  0  0  0  0  0  0  0  0  0  0
   15.7959   -0.4351   18.7447 C   0  0  0  0  0  0  0  0  0  0  0  0
   15.6698   -1.3806   19.7573 C   0  0  0  0  0  0  0  0  0  0  0  0
   16.5488   -2.4641   19.8509 C   0  0  0  0  0  0  0  0  0  0  0  0
   17.5720   -2.6089   18.9303 C   0  0  0  0  0  0  0  0  0  0  0  0
   17.7347   -1.6344   17.9534 C   0  0  0  0  0  0  0  0  0  0  0  0
   16.8625   -0.5262   17.8640 C   0  0  0  0  0  0  0  0  0  0  0  0
   14.4886    3.9219   14.6522 C   0  0  0  0  0  0  0  0  0  0  0  0
   18.2267    4.6433   11.7164 O   0  0  0  0  0  0  0  0  0  0  0  0
   15.3251    5.2359   11.8136 C   0  0  0  0  0  0  0  0  0  0  0  0
   14.8372    4.3426   10.6729 C   0  0  0  0  0  0  0  0  0  0  0  0
   14.0795    5.1403    9.7681 O   0  0  0  0  0  0  0  0  0  0  0  0
   16.9983    3.2484   14.4353 C   0  0  0  0  0  0  0  0  0  0  0  0
   15.7841    3.9244   13.9813 C   0  0  0  0  0  0  0  0  0  0  0  0
   16.1267    4.4931   12.8206 C   0  0  0  0  0  0  0  0  0  0  0  0
   17.5714    4.3118   12.6772 C   0  0  0  0  0  0  0  0  0  0  0  0
   18.0349    3.6195   13.7482 N   0  0  0  0  0  0  0  0  0  0  0  0
  3  4  2  0
  3  7  1  0
  4  1  1  0
  4  5  1  0
  5  6  1  0
  6  2  2  0
  6  7  1  0
  7 13  1  0
  8 13  2  0
  8  9  1  0
  9 10  2  0
 10 11  1  0
 11 12  2  0
 12 13  1  0
 17 16  1  0
 18 17  1  0
 19 20  1  0
 19 23  2  0
 20 14  1  0
 20 21  2  0
 21 22  1  0
 21 16  1  0
 22 15  2  0
 22 23  1  0
  5 19  1  1
M  END
>  <generation_date>  (98) 
None

>  <inchikey>  (98) 
NFPYWDQWVOHNLT-CQSZACIVSA-N

>  <ref_mols>  (98) 
cx0317a,cx0760a

>  <tags>  (98) 
['select (DF) [batch3_oxyanion]', 'pure_merges', 'fragmenstein', 'butcher: oxyanion', 'raw']

>  <ref_pdb>  (98) 
cx0300a

>  <alias>  (98) 
cx0760a-cx0317a

>  <submitter_name>  (98) 
None

>  <HIPPO ID>  (98) 
1225

>  <original ID>  (98) 
cx0760a-cx0317a

>  <method>  (98) 
None

>  <ref_url>  (98) 
None

>  <submitter_email>  (98) 
None

>  <original SMILES>  (98) 
CC1=NN(c2ccccc2)C(=O)[C@H]1C1=NC(=O)C(CCO)=C1C

$$$$
cx0760a-cx0441a
     RDKit          3D

 19 21  0  0  0  0  0  0  0  0999 V2000
   15.1119    1.4264   17.1480 O   0  0  0  0  0  0  0  0  0  0  0  0
   14.9731    3.9234   12.0644 N   0  0  0  0  0  0  0  0  0  0  0  0
   16.2818    4.1319   12.3861 C   0  0  0  0  0  0  0  0  0  0  0  0
   16.9911    4.8753   11.7193 O   0  0  0  0  0  0  0  0  0  0  0  0
   18.4373    0.6545   16.2498 N   0  0  0  0  0  0  0  0  0  0  0  0
   18.0414    1.6942   15.3809 C   0  0  0  0  0  0  0  0  0  0  0  0
   16.7040    2.0492   15.5018 C   0  0  0  0  0  0  0  0  0  0  0  0
   16.2018    1.2612   16.6298 C   0  0  0  0  0  0  0  0  0  0  0  0
   17.2127    0.3445   16.9247 N   0  0  0  0  0  0  0  0  0  0  0  0
   16.1837   -0.7918   18.8179 C   0  0  0  0  0  0  0  0  0  0  0  0
   16.1776   -1.8246   19.7509 C   0  0  0  0  0  0  0  0  0  0  0  0
   17.0959   -2.8649   19.6684 C   0  0  0  0  0  0  0  0  0  0  0  0
   18.0724   -2.8344   18.6814 C   0  0  0  0  0  0  0  0  0  0  0  0
   18.1267   -1.7605   17.7871 C   0  0  0  0  0  0  0  0  0  0  0  0
   17.1743   -0.7292   17.8373 C   0  0  0  0  0  0  0  0  0  0  0  0
   16.8362    3.3660   13.5314 C   0  0  0  0  0  0  0  0  0  0  0  0
   18.2167    3.0980   13.4764 C   0  0  0  0  0  0  0  0  0  0  0  0
   18.8273    2.2608   14.4075 C   0  0  0  0  0  0  0  0  0  0  0  0
   16.0614    2.8726   14.5897 C   0  0  0  0  0  0  0  0  0  0  0  0
  3  2  1  0
  4  3  2  0
  5  6  1  0
  5  9  1  0
  6  7  2  0
  7  8  1  0
  8  1  2  0
  8  9  1  0
  9 15  1  0
 10 15  2  0
 10 11  1  0
 11 12  2  0
 12 13  1  0
 13 14  2  0
 14 15  1  0
 16  3  1  0
 16 19  2  0
 16 17  1  0
 17 18  2  0
  7 19  1  0
  6 18  1  0
M  END
>  <generation_date>  (99) 
None

>  <inchikey>  (99) 
USJLEMAYLJACKY-UHFFFAOYSA-N

>  <ref_mols>  (99) 
cx0760a,cx0441a

>  <tags>  (99) 
['pure_merges', 'fragmenstein', 'butcher: oxyanion', 'select (HA) [batch3_oxyanion]', 'raw']

>  <ref_pdb>  (99) 
cx0300a

>  <alias>  (99) 
cx0760a-cx0441a

>  <submitter_name>  (99) 
None

>  <HIPPO ID>  (99) 
1230

>  <original ID>  (99) 
cx0760a-cx0441a

>  <method>  (99) 
None

>  <ref_url>  (99) 
None

>  <submitter_email>  (99) 
None

>  <original SMILES>  (99) 
NC(=O)c1ccc2[nH]n(-c3ccccc3)c(=O)c2c1

$$$$
cx0404a-cx1353a
     RDKit          3D

 13 14  0  0  0  0  0  0  0  0999 V2000
   15.8244    6.1922   14.7111 C   0  0  0  0  0  0  0  0  0  0  0  0
   15.2447    7.3168   14.0746 O   0  0  0  0  0  0  0  0  0  0  0  0
   15.1407    8.4336   14.9503 C   0  0  0  0  0  0  0  0  0  0  0  0
   13.8296   13.1712   11.4213 N   0  0  0  0  0  0  0  0  0  0  0  0
   14.4443   11.8601   14.0661 N   0  0  0  0  0  0  0  0  0  0  0  0
   14.5733   11.3792   12.7869 C   0  0  0  0  0  0  0  0  0  0  0  0
   14.8602    9.9633   12.8782 C   0  0  0  0  0  0  0  0  0  0  0  0
   14.8975    9.6951   14.1921 C   0  0  0  0  0  0  0  0  0  0  0  0
   14.6014   10.8189   15.0018 O   0  0  0  0  0  0  0  0  0  0  0  0
   14.3888   11.9240   11.5626 C   0  0  0  0  0  0  0  0  0  0  0  0
   14.6554   11.1570   10.4332 N   0  0  0  0  0  0  0  0  0  0  0  0
   14.8520    9.7884   10.4952 C   0  0  0  0  0  0  0  0  0  0  0  0
   14.9153    9.1390   11.6769 C   0  0  0  0  0  0  0  0  0  0  0  0
  2  1  1  0
  3  2  1  0
  5  6  1  0
  5  9  1  0
  6  7  1  0
  7  8  2  0
  8  3  1  0
  8  9  1  0
 10 11  1  0
 11 12  1  0
 12 13  2  0
  7 13  1  0
 10  4  1  0
 10  6  2  0
M  END
>  <generation_date>  (100) 
None

>  <inchikey>  (100) 
KEMVKKGDYRKKQW-UHFFFAOYSA-N

>  <ref_mols>  (100) 
cx0404a,cx1353a

>  <tags>  (100) 
['butcher: adenine', 'pure_merges', 'fragmenstein', 'select (HA) [batch4_others]', 'butcher: oxyanion', 'raw']

>  <ref_pdb>  (100) 
cx0300a

>  <alias>  (100) 
cx0404a-cx1353a

>  <submitter_name>  (100) 
None

>  <HIPPO ID>  (100) 
1254

>  <original ID>  (100) 
cx0404a-cx1353a

>  <method>  (100) 
None

>  <ref_url>  (100) 
None

>  <submitter_email>  (100) 
None

>  <original SMILES>  (100) 
COCC1=C2C=CNC(N)=C2NO1

$$$$
cx0404a-cx0394a
     RDKit          3D

 14 14  0  0  0  0  0  0  0  0999 V2000
   15.5727    5.8759   14.4311 C   0  0  0  0  0  0  0  0  0  0  0  0
   14.7399    7.0118   14.2597 O   0  0  0  0  0  0  0  0  0  0  0  0
   15.3427    8.1835   14.7806 C   0  0  0  0  0  0  0  0  0  0  0  0
   14.5186   11.6260   11.1500 C   0  0  0  0  0  0  0  0  0  0  0  0
   13.9023   12.8395   11.2350 N   0  0  0  0  0  0  0  0  0  0  0  0
   14.8630   11.1537   10.0729 O   0  0  0  0  0  0  0  0  0  0  0  0
   14.9771    8.4974   11.3417 C   0  0  0  0  0  0  0  0  0  0  0  0
   13.8031    8.0971   10.8050 F   0  0  0  0  0  0  0  0  0  0  0  0
   15.6227    7.3381   11.6708 F   0  0  0  0  0  0  0  0  0  0  0  0
   14.5212   11.4653   13.5920 N   0  0  0  0  0  0  0  0  0  0  0  0
   14.6481   10.8789   12.3916 C   0  0  0  0  0  0  0  0  0  0  0  0
   14.8658    9.4645   12.5040 C   0  0  0  0  0  0  0  0  0  0  0  0
   14.9859    9.2933   13.8754 C   0  0  0  0  0  0  0  0  0  0  0  0
   14.7578   10.4740   14.5127 O   0  0  0  0  0  0  0  0  0  0  0  0
  2  1  1  0
  3  2  1  0
  5  4  1  0
  6  4  2  0
  7  8  1  0
  9  7  1  0
 10 11  2  0
 10 14  1  0
 11 12  1  0
 11  4  1  0
 12 13  2  0
 13  3  1  0
 13 14  1  0
  7 12  1  0
M  END
>  <generation_date>  (101) 
None

>  <inchikey>  (101) 
INXKNUPVWKJHJT-UHFFFAOYSA-N

>  <ref_mols>  (101) 
cx0404a,cx0394a

>  <tags>  (101) 
['butcher: adenine', 'select (DF) [batch4_others]', 'pure_merges', 'fragmenstein', 'butcher: oxyanion', 'raw']

>  <ref_pdb>  (101) 
cx0300a

>  <alias>  (101) 
cx0404a-cx0394a

>  <submitter_name>  (101) 
None

>  <HIPPO ID>  (101) 
1255

>  <original ID>  (101) 
cx0404a-cx0394a

>  <method>  (101) 
None

>  <ref_url>  (101) 
None

>  <submitter_email>  (101) 
None

>  <original SMILES>  (101) 
COCc1onc(C(N)=O)c1C(F)F

$$$$
cx0404a-cx1402a
     RDKit          3D

 14 15  0  0  0  0  0  0  0  0999 V2000
   16.0884    5.8815   14.9231 C   0  0  0  0  0  0  0  0  0  0  0  0
   15.0747    6.7800   14.5128 O   0  0  0  0  0  0  0  0  0  0  0  0
   15.1122    7.9993   15.2428 C   0  0  0  0  0  0  0  0  0  0  0  0
   14.6214   13.0575   11.8739 N   0  0  0  0  0  0  0  0  0  0  0  0
   14.1879   11.3422   14.2054 N   0  0  0  0  0  0  0  0  0  0  0  0
   14.8966   10.8882   12.9841 C   0  0  1  0  0  0  0  0  0  0  0  0
   14.9828    9.3733   13.0893 C   0  0  1  0  0  0  0  0  0  0  0  0
   14.3538    9.0577   14.4511 C   0  0  2  0  0  0  0  0  0  0  0  0
   14.4362   10.2896   15.1760 O   0  0  0  0  0  0  0  0  0  0  0  0
   14.9918   11.3076   10.4834 N   0  0  0  0  0  0  0  0  0  0  0  0
   14.3639   11.6217   11.7325 C   0  0  2  0  0  0  0  0  0  0  0  0
   14.6940    8.3963   11.9331 C   0  0  0  0  0  0  0  0  0  0  0  0
   14.9450    8.7426   10.4538 C   0  0  0  0  0  0  0  0  0  0  0  0
   14.5797   10.0817    9.8236 C   0  0  0  0  0  0  0  0  0  0  0  0
  2  1  1  0
  3  2  1  0
  6  5  1  1
  5  9  1  0
  6  7  1  0
  7  8  1  0
  8  3  1  1
  8  9  1  0
 10 14  1  0
 10 11  1  0
 12 13  1  0
 13 14  1  0
  6 11  1  0
  7 12  1  6
 11  4  1  1
M  END
>  <generation_date>  (102) 
None

>  <inchikey>  (102) 
WRBAXNAMZCGYTN-HXFLIBJXSA-N

>  <ref_mols>  (102) 
cx0404a,cx1402a

>  <tags>  (102) 
['butcher: adenine', 'select (DF) [batch4_others]', 'pure_merges', 'fragmenstein', 'select (HA) [batch4_others]', 'butcher: oxyanion', 'raw']

>  <ref_pdb>  (102) 
cx0300a

>  <alias>  (102) 
cx0404a-cx1402a

>  <submitter_name>  (102) 
None

>  <HIPPO ID>  (102) 
1256

>  <original ID>  (102) 
cx0404a-cx1402a

>  <method>  (102) 
None

>  <ref_url>  (102) 
None

>  <submitter_email>  (102) 
None

>  <original SMILES>  (102) 
COC[C@H]1ON[C@H]2[C@@H]1CCCN[C@@H]2N

$$$$
cx0404a-cx1406a
     RDKit          3D

 14 15  0  0  0  0  0  0  0  0999 V2000
   15.5015    5.9626   14.9271 C   0  0  0  0  0  0  0  0  0  0  0  0
   14.7770    7.1335   14.5813 O   0  0  0  0  0  0  0  0  0  0  0  0
   15.4385    8.3021   15.0417 C   0  0  0  0  0  0  0  0  0  0  0  0
   14.0192   13.0635   11.3547 N   0  0  0  0  0  0  0  0  0  0  0  0
   14.9210    7.3552   11.6784 C   0  0  0  0  0  0  0  0  0  0  0  0
   14.5546   11.6365   14.0455 N   0  0  0  0  0  0  0  0  0  0  0  0
   14.6411   11.1391   12.7989 C   0  0  0  0  0  0  0  0  0  0  0  0
   14.8546    9.7092   12.8611 C   0  0  0  0  0  0  0  0  0  0  0  0
   15.0195    9.4382   14.1992 C   0  0  0  0  0  0  0  0  0  0  0  0
   14.8195   10.5926   14.8990 O   0  0  0  0  0  0  0  0  0  0  0  0
   14.8737    8.8440   11.7432 C   0  0  0  0  0  0  0  0  0  0  0  0
   14.8171    9.6148   10.5601 C   0  0  0  0  0  0  0  0  0  0  0  0
   14.6574   10.9778   10.4406 N   0  0  0  0  0  0  0  0  0  0  0  0
   14.4913   11.7689   11.5435 C   0  0  0  0  0  0  0  0  0  0  0  0
  2  1  1  0
  3  2  1  0
  6  7  2  0
  6 10  1  0
  7  8  1  0
  8  9  2  0
  9  3  1  0
  9 10  1  0
 11  5  1  0
 11 12  2  0
 12 13  1  0
 13 14  2  0
  7 14  1  0
  8 11  1  0
 14  4  1  0
M  END
>  <generation_date>  (103) 
None

>  <inchikey>  (103) 
FJKXTLNFCGXMOJ-UHFFFAOYSA-N

>  <ref_mols>  (103) 
cx0404a,cx1406a

>  <tags>  (103) 
['butcher: adenine', 'select (DF) [batch4_others]', 'pure_merges', 'fragmenstein', 'select (HA) [batch4_others]', 'butcher: oxyanion', 'raw']

>  <ref_pdb>  (103) 
cx0300a

>  <alias>  (103) 
cx0404a-cx1406a

>  <submitter_name>  (103) 
None

>  <HIPPO ID>  (103) 
1258

>  <original ID>  (103) 
cx0404a-cx1406a

>  <method>  (103) 
None

>  <ref_url>  (103) 
None

>  <submitter_email>  (103) 
None

>  <original SMILES>  (103) 
COCc1onc2c(N)ncc(C)c12

$$$$
cx1278a-cx1338a
     RDKit          3D

 14 15  0  0  0  0  0  0  0  0999 V2000
   14.8517    8.9730   16.2540 C   0  0  0  0  0  0  0  0  0  0  0  0
   14.6981    9.5148   14.9405 O   0  0  0  0  0  0  0  0  0  0  0  0
   14.8203   10.8644   14.8656 C   0  0  0  0  0  0  0  0  0  0  0  0
   14.9943   11.6119   15.8186 O   0  0  0  0  0  0  0  0  0  0  0  0
   14.5083   13.7011   13.9145 N   0  0  0  0  0  0  0  0  0  0  0  0
   14.5286   12.7786   11.7171 N   0  0  0  0  0  0  0  0  0  0  0  0
   14.5673   12.6121   13.0941 C   0  0  0  0  0  0  0  0  0  0  0  0
   14.7123   11.3226   13.4813 C   0  0  0  0  0  0  0  0  0  0  0  0
   14.7756   10.5555   12.2850 C   0  0  0  0  0  0  0  0  0  0  0  0
   14.6598   11.5806   11.2170 C   0  0  0  0  0  0  0  0  0  0  0  0
   14.7229    9.8696    9.5604 C   0  0  0  0  0  0  0  0  0  0  0  0
   14.6759   11.2004    9.9059 N   0  0  0  0  0  0  0  0  0  0  0  0
   14.8475    9.2668   11.9124 C   0  0  0  0  0  0  0  0  0  0  0  0
   14.8196    8.9020   10.4909 C   0  0  0  0  0  0  0  0  0  0  0  0
  2  1  1  0
  3  2  1  0
  4  3  2  0
  6  7  1  0
  6 10  2  0
  7  8  2  0
  8  3  1  0
  8  9  1  0
  9 13  2  0
  9 10  1  0
 10 12  1  0
 11 14  2  0
 11 12  1  0
 13 14  1  0
  5  7  1  0
M  END
>  <generation_date>  (104) 
None

>  <inchikey>  (104) 
BTCQHASCGQHDQB-UHFFFAOYSA-N

>  <ref_mols>  (104) 
cx1338a,cx1278a

>  <tags>  (104) 
['butcher: adenine', 'pure_merges', 'fragmenstein', 'select (HA) [batch1_adenine]', 'raw']

>  <ref_pdb>  (104) 
cx0300a

>  <alias>  (104) 
cx1278a-cx1338a

>  <submitter_name>  (104) 
None

>  <HIPPO ID>  (104) 
1272

>  <original ID>  (104) 
cx1278a-cx1338a

>  <method>  (104) 
None

>  <ref_url>  (104) 
None

>  <submitter_email>  (104) 
None

>  <original SMILES>  (104) 
COC(=O)c1c2ccc[nH]c-2nc1N

$$$$
cx1278a-cx1371a
     RDKit          3D

 15 16  0  0  0  0  0  0  0  0999 V2000
   14.4271    8.8918   16.7707 C   0  0  0  0  0  0  0  0  0  0  0  0
   14.5962    9.3133   15.4165 O   0  0  0  0  0  0  0  0  0  0  0  0
   14.7708   10.6380   15.2003 C   0  0  0  0  0  0  0  0  0  0  0  0
   14.7051   11.5130   16.0552 O   0  0  0  0  0  0  0  0  0  0  0  0
   13.7776   12.9392   11.1391 N   0  0  0  0  0  0  0  0  0  0  0  0
   14.6295   12.1038   11.8632 N   0  0  0  0  0  0  0  0  0  0  0  0
   14.6079   12.2469   13.3261 C   0  0  0  0  0  0  0  0  0  0  0  0
   15.2131   10.9246   13.7998 C   0  0  2  0  0  0  0  0  0  0  0  0
   14.9155   10.0079   12.6457 C   0  0  0  0  0  0  0  0  0  0  0  0
   14.7403   10.7447   11.5329 C   0  0  0  0  0  0  0  0  0  0  0  0
   14.9997    8.7495   10.0750 C   0  0  0  0  0  0  0  0  0  0  0  0
   14.6476   10.1441   10.2930 N   0  0  0  0  0  0  0  0  0  0  0  0
   14.9210    8.5109   12.6654 C   0  0  0  0  0  0  0  0  0  0  0  0
   14.7020    7.8631   11.2842 C   0  0  0  0  0  0  0  0  0  0  0  0
   14.9820   10.9016    9.1882 O   0  0  0  0  0  0  0  0  0  0  0  0
  2  1  1  0
  3  2  1  0
  4  3  2  0
  6  7  1  0
  6 10  1  0
  7  8  1  0
  8  3  1  1
  8  9  1  0
  9 13  1  0
  9 10  2  0
 10 12  1  0
 11 14  1  0
 11 12  1  0
 13 14  1  0
  6  5  1  0
 12 15  1  0
M  END
>  <generation_date>  (105) 
None

>  <inchikey>  (105) 
ICXGNKHHURQPSK-SSDOTTSWSA-N

>  <ref_mols>  (105) 
cx1371a,cx1278a

>  <tags>  (105) 
['butcher: adenine', 'pure_merges', 'fragmenstein', 'select (HA) [batch1_adenine]', 'raw']

>  <ref_pdb>  (105) 
cx0300a

>  <alias>  (105) 
cx1278a-cx1371a

>  <submitter_name>  (105) 
None

>  <HIPPO ID>  (105) 
1273

>  <original ID>  (105) 
cx1278a-cx1371a

>  <method>  (105) 
None

>  <ref_url>  (105) 
None

>  <submitter_email>  (105) 
None

>  <original SMILES>  (105) 
COC(=O)[C@@H]1CN(N)C2=C1CCCN2O

$$$$
cx1278a-cx0404a
     RDKit          3D

 16 16  0  0  0  0  0  0  0  0999 V2000
   14.3657    8.8436   16.6374 C   0  0  0  0  0  0  0  0  0  0  0  0
   14.9572    9.1741   15.3513 N   0  0  0  0  0  0  0  0  0  0  0  0
   14.7999   10.4619   14.8502 C   0  0  0  0  0  0  0  0  0  0  0  0
   14.5348   11.3849   15.6495 O   0  0  0  0  0  0  0  0  0  0  0  0
   15.9993    7.2401   14.6198 C   0  0  0  0  0  0  0  0  0  0  0  0
   14.8485    8.0778   14.4750 O   0  0  0  0  0  0  0  0  0  0  0  0
   14.7625   13.9366   14.1155 N   0  0  0  0  0  0  0  0  0  0  0  0
   14.8490   13.3150   12.8425 N   0  0  0  0  0  0  0  0  0  0  0  0
   14.1918   12.0188   12.8858 C   0  0  2  0  0  0  0  0  0  0  0  0
   15.1059   10.8650   13.4135 C   0  0  2  0  0  0  0  0  0  0  0  0
   14.8791   10.1555   12.0392 C   0  0  2  0  0  0  0  0  0  0  0  0
   14.3287   11.5021   11.4705 C   0  0  0  0  0  0  0  0  0  0  0  0
   14.2228    9.1964    9.1917 C   0  0  0  0  0  0  0  0  0  0  0  0
   15.3055   10.0797    8.8248 N   0  0  0  0  0  0  0  0  0  0  0  0
   14.6427    8.6676   11.7498 C   0  0  0  0  0  0  0  0  0  0  0  0
   14.6343    8.2257   10.2857 C   0  0  0  0  0  0  0  0  0  0  0  0
  2  1  1  0
  3  2  1  0
  4  3  2  0
  6  5  1  0
  6  2  1  0
  9  8  1  6
  9 10  1  0
 10  3  1  1
 10 11  1  0
 11 15  1  1
 11 12  1  0
 13 16  1  0
 13 14  1  0
 15 16  1  0
  8  7  1  0
 12  9  1  0
M  END
>  <generation_date>  (106) 
None

>  <inchikey>  (106) 
COSHVWJCGUMIHF-CIUDSAMLSA-N

>  <ref_mols>  (106) 
cx0404a,cx1278a

>  <tags>  (106) 
['butcher: adenine', 'pure_merges', 'fragmenstein', 'select (HA) [batch1_adenine]', 'raw']

>  <ref_pdb>  (106) 
cx0300a

>  <alias>  (106) 
cx1278a-cx0404a

>  <submitter_name>  (106) 
None

>  <HIPPO ID>  (106) 
1277

>  <original ID>  (106) 
cx1278a-cx0404a

>  <method>  (106) 
None

>  <ref_url>  (106) 
None

>  <submitter_email>  (106) 
None

>  <original SMILES>  (106) 
CON(C)C(=O)[C@H]1[C@@H](CCCN)C[C@@H]1NN

$$$$
cx1278a-cx0353a
     RDKit          3D

 14 14  0  0  0  0  0  0  0  0999 V2000
   14.6999    8.6723   16.8625 C   0  0  0  0  0  0  0  0  0  0  0  0
   14.0172   12.5427   11.7051 N   0  0  0  0  0  0  0  0  0  0  0  0
   14.1034   12.6764   13.0626 C   0  0  0  0  0  0  0  0  0  0  0  0
   14.6750   11.5375   13.5835 C   0  0  0  0  0  0  0  0  0  0  0  0
   15.0061   10.7485   12.4600 C   0  0  0  0  0  0  0  0  0  0  0  0
   14.6232   11.3858   11.3084 C   0  0  0  0  0  0  0  0  0  0  0  0
   14.3841    9.8203    9.3990 C   0  0  0  0  0  0  0  0  0  0  0  0
   14.7147   11.1136    9.9854 N   0  0  0  0  0  0  0  0  0  0  0  0
   14.5412    7.7763   10.9865 C   0  0  0  0  0  0  0  0  0  0  0  0
   15.1691    8.6487    9.9248 C   0  0  0  0  0  0  0  0  0  0  0  0
   14.8191   11.2286   15.0348 C   0  0  0  0  0  0  0  0  0  0  0  0
   15.9930   10.3535   15.4576 C   0  0  0  0  0  0  0  0  0  0  0  0
   15.6868    8.8647   15.7100 C   0  0  0  0  0  0  0  0  0  0  0  0
   15.1997    8.1019   14.4890 C   0  0  0  0  0  0  0  0  0  0  0  0
  2  3  1  0
  2  6  1  0
  3  4  2  0
  4  5  1  0
  5  6  2  0
  6  8  1  0
  7 10  1  0
  7  8  1  0
  9 10  1  0
 11 12  1  0
 12 13  1  0
 13 14  1  0
  4 11  1  0
 13  1  1  0
M  END
>  <generation_date>  (107) 
None

>  <inchikey>  (107) 
VXOZIAXPIMEJPP-UHFFFAOYSA-N

>  <ref_mols>  (107) 
cx1278a,cx0353a

>  <tags>  (107) 
['butcher: adenine', 'pure_merges', 'fragmenstein', 'select (HA) [batch1_adenine]', 'raw']

>  <ref_pdb>  (107) 
cx0300a

>  <alias>  (107) 
cx1278a-cx0353a

>  <submitter_name>  (107) 
None

>  <HIPPO ID>  (107) 
1279

>  <original ID>  (107) 
cx1278a-cx0353a

>  <method>  (107) 
None

>  <ref_url>  (107) 
None

>  <submitter_email>  (107) 
None

>  <original SMILES>  (107) 
CCCNc1cc(CCC(C)C)c[nH]1

$$$$
cx1278a-cx0969a
     RDKit          3D

 14 15  0  0  0  0  0  0  0  0999 V2000
   14.7230    9.1853   16.4944 C   0  0  0  0  0  0  0  0  0  0  0  0
   14.3021    9.7364   15.2590 O   0  0  0  0  0  0  0  0  0  0  0  0
   14.9802   10.9260   14.8830 C   0  0  0  0  0  0  0  0  0  0  0  0
   14.5073   12.0237   15.6261 O   0  0  0  0  0  0  0  0  0  0  0  0
   16.3647   10.8689   15.1854 O   0  0  0  0  0  0  0  0  0  0  0  0
   14.5571   12.1682   11.4154 N   0  0  0  0  0  0  0  0  0  0  0  0
   14.5634   12.3799   12.7659 C   0  0  0  0  0  0  0  0  0  0  0  0
   14.7896   11.1683   13.4052 C   0  0  0  0  0  0  0  0  0  0  0  0
   14.8215   10.1717   12.3718 C   0  0  0  0  0  0  0  0  0  0  0  0
   14.7395   10.8356   11.1479 C   0  0  0  0  0  0  0  0  0  0  0  0
   14.7268    8.7770    9.9434 C   0  0  0  0  0  0  0  0  0  0  0  0
   14.7343   10.1689    9.9207 C   0  0  0  0  0  0  0  0  0  0  0  0
   14.8658    8.7542   12.3587 C   0  0  0  0  0  0  0  0  0  0  0  0
   14.7931    8.0687   11.1374 C   0  0  0  0  0  0  0  0  0  0  0  0
  2  1  1  0
  3  2  1  0
  4  3  1  0
  5  3  1  0
  6  7  1  0
  6 10  1  0
  7  8  2  0
  8  3  1  0
  8  9  1  0
  9 13  1  0
  9 10  2  0
 10 12  1  0
 11 14  1  0
 11 12  2  0
 13 14  2  0
M  END
>  <generation_date>  (108) 
None

>  <inchikey>  (108) 
DLSKEJKONXTOHV-UHFFFAOYSA-N

>  <ref_mols>  (108) 
cx1278a,cx0969a

>  <tags>  (108) 
['butcher: adenine', 'pure_merges', 'fragmenstein', 'select (HA) [batch1_adenine]', 'raw']

>  <ref_pdb>  (108) 
cx0300a

>  <alias>  (108) 
cx1278a-cx0969a

>  <submitter_name>  (108) 
None

>  <HIPPO ID>  (108) 
1280

>  <original ID>  (108) 
cx1278a-cx0969a

>  <method>  (108) 
None

>  <ref_url>  (108) 
None

>  <submitter_email>  (108) 
None

>  <original SMILES>  (108) 
COC(O)(O)c1c[nH]c2ccccc12

$$$$
cx1278a-cx1203a
     RDKit          3D

 14 15  0  0  0  0  0  0  0  0999 V2000
   14.8513    8.9672   16.2520 C   0  0  0  0  0  0  0  0  0  0  0  0
   14.7018    9.5012   14.9348 O   0  0  0  0  0  0  0  0  0  0  0  0
   14.8228   10.8504   14.8525 C   0  0  0  0  0  0  0  0  0  0  0  0
   14.9934   11.6035   15.8018 O   0  0  0  0  0  0  0  0  0  0  0  0
   14.5252   13.6816   13.8824 N   0  0  0  0  0  0  0  0  0  0  0  0
   14.5383   12.7476   11.6931 N   0  0  0  0  0  0  0  0  0  0  0  0
   14.5774   12.5877   13.0702 C   0  0  0  0  0  0  0  0  0  0  0  0
   14.7178   11.3002   13.4652 C   0  0  0  0  0  0  0  0  0  0  0  0
   14.7789   10.5268   12.2730 C   0  0  0  0  0  0  0  0  0  0  0  0
   14.6669   11.5471   11.1997 C   0  0  0  0  0  0  0  0  0  0  0  0
   14.7178    9.8292    9.5518 C   0  0  0  0  0  0  0  0  0  0  0  0
   14.6815   11.1619    9.8904 N   0  0  0  0  0  0  0  0  0  0  0  0
   14.8449    9.2360   11.9063 C   0  0  0  0  0  0  0  0  0  0  0  0
   14.8120    8.8654   10.4866 C   0  0  0  0  0  0  0  0  0  0  0  0
  2  1  1  0
  3  2  1  0
  4  3  2  0
  6  7  1  0
  6 10  2  0
  7  8  2  0
  8  3  1  0
  8  9  1  0
  9 13  2  0
  9 10  1  0
 10 12  1  0
 11 14  2  0
 11 12  1  0
 13 14  1  0
  5  7  1  0
M  END
>  <generation_date>  (109) 
None

>  <inchikey>  (109) 
BTCQHASCGQHDQB-UHFFFAOYSA-N

>  <ref_mols>  (109) 
cx1278a,cx1203a

>  <tags>  (109) 
['butcher: adenine', 'pure_merges', 'fragmenstein', 'select (HA) [batch1_adenine]', 'raw']

>  <ref_pdb>  (109) 
cx0300a

>  <alias>  (109) 
cx1278a-cx1203a

>  <submitter_name>  (109) 
None

>  <HIPPO ID>  (109) 
1285

>  <original ID>  (109) 
cx1278a-cx1203a

>  <method>  (109) 
None

>  <ref_url>  (109) 
None

>  <submitter_email>  (109) 
None

>  <original SMILES>  (109) 
COC(=O)c1c2ccc[nH]c-2nc1N

$$$$
cx1278a-cx0839a
     RDKit          3D

 14 16  0  0  0  0  0  0  0  0999 V2000
   14.7992    9.5438   16.9018 C   0  0  0  0  0  0  0  0  0  0  0  0
   15.0200    9.8429   15.5236 O   0  0  0  0  0  0  0  0  0  0  0  0
   14.7568   11.0797   15.0927 C   0  0  0  0  0  0  0  0  0  0  0  0
   14.2684   12.1214   15.7047 N   0  0  0  0  0  0  0  0  0  0  0  0
   14.0661   13.0711   14.6646 N   0  0  0  0  0  0  0  0  0  0  0  0
   14.1946   12.8370   12.1022 N   0  0  0  0  0  0  0  0  0  0  0  0
   13.9991   12.3049   13.4325 C   0  0  1  0  0  0  0  0  0  0  0  0
   15.1387   11.3983   13.7267 C   0  0  2  0  0  0  0  0  0  0  0  0
   15.2456   10.6698   12.4607 C   0  0  2  0  0  0  0  0  0  0  0  0
   14.8827   11.7298   11.4226 C   0  0  1  0  0  0  0  0  0  0  0  0
   14.7427    9.9513    9.8120 C   0  0  0  0  0  0  0  0  0  0  0  0
   14.1879   11.2240   10.2841 N   0  0  0  0  0  0  0  0  0  0  0  0
   14.8645    9.2171   12.3149 C   0  0  0  0  0  0  0  0  0  0  0  0
   14.7156    8.7984   10.8390 C   0  0  0  0  0  0  0  0  0  0  0  0
  2  1  1  0
  3  2  1  0
  4  3  2  0
  5  4  1  0
  7  6  1  6
 10  6  1  1
  7  8  1  0
  8  3  1  1
  8  9  1  0
  9 13  1  1
  9 10  1  0
 10 12  1  0
 11 14  1  0
 11 12  1  0
 13 14  1  0
  5  7  1  0
M  END
>  <generation_date>  (110) 
None

>  <inchikey>  (110) 
WTVRYKBCOMNWCM-VGRMVHKJSA-N

>  <ref_mols>  (110) 
cx1278a,cx0839a

>  <tags>  (110) 
['butcher: adenine', 'pure_merges', 'fragmenstein', 'select (HA) [batch1_adenine]', 'raw']

>  <ref_pdb>  (110) 
cx0300a

>  <alias>  (110) 
cx1278a-cx0839a

>  <submitter_name>  (110) 
None

>  <HIPPO ID>  (110) 
1286

>  <original ID>  (110) 
cx1278a-cx0839a

>  <method>  (110) 
None

>  <ref_url>  (110) 
None

>  <submitter_email>  (110) 
None

>  <original SMILES>  (110) 
COC1=NN[C@H]2N[C@@H]3NCCC[C@@H]3[C@H]12

$$$$
cx1278a-cx1406a
     RDKit          3D

 14 15  0  0  0  0  0  0  0  0999 V2000
   14.9006    9.2147   16.4910 C   0  0  0  0  0  0  0  0  0  0  0  0
   14.7440    9.7207   15.1634 O   0  0  0  0  0  0  0  0  0  0  0  0
   14.7938   11.0713   15.0387 C   0  0  0  0  0  0  0  0  0  0  0  0
   14.8871   11.8697   15.9574 O   0  0  0  0  0  0  0  0  0  0  0  0
   14.5414    7.4068   10.6698 C   0  0  0  0  0  0  0  0  0  0  0  0
   14.4812   12.8351   11.7898 N   0  0  0  0  0  0  0  0  0  0  0  0
   14.5075   12.7081   13.1776 C   0  0  0  0  0  0  0  0  0  0  0  0
   14.7074   11.4617   13.6361 C   0  0  0  0  0  0  0  0  0  0  0  0
   14.7881   10.6539   12.4748 C   0  0  0  0  0  0  0  0  0  0  0  0
   14.6626   11.6154   11.3447 C   0  0  0  0  0  0  0  0  0  0  0  0
   14.7038    9.7829    9.8081 C   0  0  0  0  0  0  0  0  0  0  0  0
   14.7168   11.1468   10.0555 N   0  0  0  0  0  0  0  0  0  0  0  0
   14.8643    9.3479   12.1980 C   0  0  0  0  0  0  0  0  0  0  0  0
   14.7566    8.8763   10.8113 C   0  0  0  0  0  0  0  0  0  0  0  0
  2  1  1  0
  3  2  1  0
  4  3  2  0
  6  7  1  0
  6 10  2  0
  7  8  2  0
  8  3  1  0
  8  9  1  0
  9 13  2  0
  9 10  1  0
 10 12  1  0
 11 14  2  0
 11 12  1  0
 13 14  1  0
  5 14  1  0
M  END
>  <generation_date>  (111) 
None

>  <inchikey>  (111) 
QZVYQICELPCZOV-UHFFFAOYSA-N

>  <ref_mols>  (111) 
cx1278a,cx1406a

>  <tags>  (111) 
['butcher: adenine', 'pure_merges', 'fragmenstein', 'select (JA) [batch1_adenine]', 'raw']

>  <ref_pdb>  (111) 
cx0300a

>  <alias>  (111) 
cx1278a-cx1406a

>  <submitter_name>  (111) 
None

>  <HIPPO ID>  (111) 
1289

>  <original ID>  (111) 
cx1278a-cx1406a

>  <method>  (111) 
None

>  <ref_url>  (111) 
None

>  <submitter_email>  (111) 
None

>  <original SMILES>  (111) 
COC(=O)c1cnc2[nH]cc(C)cc1-2

$$$$
cx1278a-cx1288a
     RDKit          3D

 14 15  0  0  0  0  0  0  0  0999 V2000
   14.8655    8.9547   16.3073 C   0  0  0  0  0  0  0  0  0  0  0  0
   14.7376    9.4916   14.9892 O   0  0  0  0  0  0  0  0  0  0  0  0
   14.8080   10.8444   14.9255 C   0  0  0  0  0  0  0  0  0  0  0  0
   14.9156   11.5980   15.8810 O   0  0  0  0  0  0  0  0  0  0  0  0
   14.6062    7.6152   10.1544 N   0  0  0  0  0  0  0  0  0  0  0  0
   14.4690   12.8199   11.8214 N   0  0  0  0  0  0  0  0  0  0  0  0
   14.5110   12.5834   13.1907 C   0  0  0  0  0  0  0  0  0  0  0  0
   14.7147   11.3034   13.5459 C   0  0  0  0  0  0  0  0  0  0  0  0
   14.7807   10.5792   12.3245 C   0  0  0  0  0  0  0  0  0  0  0  0
   14.6428   11.6384   11.2837 C   0  0  0  0  0  0  0  0  0  0  0  0
   14.6920    9.9578    9.5967 C   0  0  0  0  0  0  0  0  0  0  0  0
   14.6790   11.2874    9.9647 N   0  0  0  0  0  0  0  0  0  0  0  0
   14.8479    9.2993   11.9215 C   0  0  0  0  0  0  0  0  0  0  0  0
   14.7562    8.9464   10.4921 C   0  0  0  0  0  0  0  0  0  0  0  0
  2  1  1  0
  3  2  1  0
  4  3  2  0
  6  7  1  0
  6 10  2  0
  7  8  2  0
  8  3  1  0
  8  9  1  0
  9 13  2  0
  9 10  1  0
 10 12  1  0
 11 14  2  0
 11 12  1  0
 13 14  1  0
  5 14  1  0
M  END
>  <generation_date>  (112) 
None

>  <inchikey>  (112) 
CULRUGBWHKMLGM-UHFFFAOYSA-N

>  <ref_mols>  (112) 
cx1278a,cx1288a

>  <tags>  (112) 
['butcher: adenine', 'pure_merges', 'fragmenstein', 'select (HA) [batch1_adenine]', 'raw']

>  <ref_pdb>  (112) 
cx0300a

>  <alias>  (112) 
cx1278a-cx1288a

>  <submitter_name>  (112) 
None

>  <HIPPO ID>  (112) 
1293

>  <original ID>  (112) 
cx1278a-cx1288a

>  <method>  (112) 
None

>  <ref_url>  (112) 
None

>  <submitter_email>  (112) 
None

>  <original SMILES>  (112) 
COC(=O)c1cnc2[nH]cc(N)cc1-2

$$$$
cx0305a-cx1118a
     RDKit          3D

 18 19  0  0  0  0  0  0  0  0999 V2000
   17.0757    0.4296   16.6135 N   0  0  0  0  0  0  0  0  0  0  0  0
   17.1373    2.6741   15.7395 C   0  0  0  0  0  0  0  0  0  0  0  0
   15.2492    1.8185   16.9378 O   0  0  0  0  0  0  0  0  0  0  0  0
   16.3543    1.5962   16.4545 C   0  0  0  0  0  0  0  0  0  0  0  0
   18.8626   -1.8752   16.6381 C   0  0  0  0  0  0  0  0  0  0  0  0
   16.8291   -0.6076   17.5411 C   0  0  0  0  0  0  0  0  0  0  0  0
   17.7225   -1.6941   17.6002 C   0  0  0  0  0  0  0  0  0  0  0  0
   17.5427   -2.6612   18.5960 C   0  0  0  0  0  0  0  0  0  0  0  0
   16.5032   -2.5158   19.4929 C   0  0  0  0  0  0  0  0  0  0  0  0
   15.6145   -1.5069   19.4495 N   0  0  0  0  0  0  0  0  0  0  0  0
   15.7901   -0.5832   18.4727 C   0  0  0  0  0  0  0  0  0  0  0  0
   18.3539    4.0447   11.4689 O   0  0  0  0  0  0  0  0  0  0  0  0
   17.6875    3.3041   13.4820 N   0  0  0  0  0  0  0  0  0  0  0  0
   16.6882    3.0700   14.3689 C   0  0  0  0  0  0  0  0  0  0  0  0
   15.3580    3.3586   14.0771 C   0  0  0  0  0  0  0  0  0  0  0  0
   15.0383    3.9062   12.8350 C   0  0  0  0  0  0  0  0  0  0  0  0
   16.0454    4.1578   11.9222 C   0  0  0  0  0  0  0  0  0  0  0  0
   17.3230    3.8414   12.3093 C   0  0  0  0  0  0  0  0  0  0  0  0
  4  3  2  0
  4  2  1  0
  4  1  1  0
  6  1  1  0
  6 11  1  0
  6  7  2  0
  7  8  1  0
  7  5  1  0
  8  9  2  0
  9 10  1  0
 10 11  2  0
 13 18  2  0
 13 14  1  0
 14 15  2  0
 15 16  1  0
 16 17  2  0
 17 18  1  0
 18 12  1  0
  2 14  1  0
M  END
>  <generation_date>  (113) 
None

>  <inchikey>  (113) 
KIULBMGWDSJTMM-UHFFFAOYSA-N

>  <ref_mols>  (113) 
cx0305a,cx1118a

>  <tags>  (113) 
['pure_merges', 'fragmenstein', 'butcher: oxyanion', 'select (HA) [batch3_oxyanion]', 'raw']

>  <ref_pdb>  (113) 
cx0300a

>  <alias>  (113) 
cx0305a-cx1118a

>  <submitter_name>  (113) 
None

>  <HIPPO ID>  (113) 
1301

>  <original ID>  (113) 
cx0305a-cx1118a

>  <method>  (113) 
None

>  <ref_url>  (113) 
None

>  <submitter_email>  (113) 
None

>  <original SMILES>  (113) 
Cc1ccncc1NC(=O)Cc1cccc(O)n1

$$$$
cx1118a-cx0505a
     RDKit          3D

 22 24  0  0  0  0  0  0  0  0999 V2000
   18.6220    3.9903   11.6946 O   0  0  0  0  0  0  0  0  0  0  0  0
   17.6657    3.1691   13.5645 N   0  0  0  0  0  0  0  0  0  0  0  0
   16.5404    2.8662   14.2321 C   0  0  0  0  0  0  0  0  0  0  0  0
   15.2768    3.2063   13.7044 C   0  0  0  0  0  0  0  0  0  0  0  0
   15.1520    3.8794   12.4961 C   0  0  0  0  0  0  0  0  0  0  0  0
   16.2991    4.2071   11.8190 C   0  0  0  0  0  0  0  0  0  0  0  0
   17.4864    3.8197   12.3943 C   0  0  0  0  0  0  0  0  0  0  0  0
   15.7079    4.5472   16.5249 C   0  0  0  0  0  0  0  0  0  0  0  0
   19.5044    0.1548   16.4227 O   0  0  0  0  0  0  0  0  0  0  0  0
   18.8238    1.1213   16.0666 C   0  0  0  0  0  0  0  0  0  0  0  0
   19.5479    2.3717   15.6756 C   0  0  0  0  0  0  0  0  0  0  0  0
   14.1138    1.1358   19.5846 F   0  0  0  0  0  0  0  0  0  0  0  0
   17.4343    1.1612   16.0926 N   0  0  0  0  0  0  0  0  0  0  0  0
   16.7981    0.4791   17.2014 C   0  0  0  0  0  0  0  0  0  0  0  0
   15.8191    1.1742   17.9523 C   0  0  0  0  0  0  0  0  0  0  0  0
   15.4882    2.5067   17.7699 O   0  0  0  0  0  0  0  0  0  0  0  0
   16.3421    3.1962   16.8253 C   0  0  1  0  0  0  0  0  0  0  0  0
   16.5369    2.2567   15.6289 C   0  0  1  0  0  0  0  0  0  0  0  0
   17.0833   -0.8537   17.5195 C   0  0  0  0  0  0  0  0  0  0  0  0
   16.3877   -1.4955   18.5475 C   0  0  0  0  0  0  0  0  0  0  0  0
   15.3944   -0.8144   19.2498 C   0  0  0  0  0  0  0  0  0  0  0  0
   15.1078    0.5066   18.9404 C   0  0  0  0  0  0  0  0  0  0  0  0
  2  7  2  0
  2  3  1  0
  3  4  2  0
  4  5  1  0
  5  6  2  0
  6  7  1  0
  7  1  1  0
 10  9  2  0
 11 10  1  0
 13 18  1  0
 13 10  1  0
 13 14  1  0
 14 15  2  0
 14 19  1  0
 15 22  1  0
 15 16  1  0
 16 17  1  0
 17  8  1  6
 17 18  1  0
 19 20  2  0
 20 21  1  0
 21 22  2  0
 22 12  1  0
 18  3  1  6
M  END
>  <generation_date>  (114) 
None

>  <inchikey>  (114) 
KCUYLFKBJCQPIS-PSLIRLAXSA-N

>  <ref_mols>  (114) 
cx1118a,cx0505a

>  <tags>  (114) 
['select (DF) [batch3_oxyanion]', 'pure_merges', 'fragmenstein', 'butcher: oxyanion', 'select (JA) [batch3_oxyanion]', 'raw']

>  <ref_pdb>  (114) 
cx0300a

>  <alias>  (114) 
cx1118a-cx0505a

>  <submitter_name>  (114) 
None

>  <HIPPO ID>  (114) 
1341

>  <original ID>  (114) 
cx1118a-cx0505a

>  <method>  (114) 
None

>  <ref_url>  (114) 
None

>  <submitter_email>  (114) 
None

>  <original SMILES>  (114) 
CC(=O)N1c2cccc(F)c2O[C@H](C)[C@H]1c1cccc(O)n1

$$$$
cx1134a-cx1305a
     RDKit          3D

 12 13  0  0  0  0  0  0  0  0999 V2000
   13.7143   13.1531   11.1072 N   0  0  0  0  0  0  0  0  0  0  0  0
   13.6840    8.7433    9.0052 C   0  0  0  0  0  0  0  0  0  0  0  0
   14.8093   10.9760   15.2677 O   0  0  0  0  0  0  0  0  0  0  0  0
   14.7418   10.9804   13.9062 C   0  0  0  0  0  0  0  0  0  0  0  0
   14.9786    9.7840   13.2385 C   0  0  0  0  0  0  0  0  0  0  0  0
   14.9210    9.8079   11.8589 C   0  0  0  0  0  0  0  0  0  0  0  0
   14.6917   10.9642   11.1640 C   0  0  0  0  0  0  0  0  0  0  0  0
   14.3673   12.1360   11.8132 C   0  0  0  0  0  0  0  0  0  0  0  0
   14.3839   12.1400   13.2095 C   0  0  0  0  0  0  0  0  0  0  0  0
   14.8680    9.3567    9.7301 C   0  0  1  0  0  0  0  0  0  0  0  0
   14.6741   10.7788    9.8132 O   0  0  0  0  0  0  0  0  0  0  0  0
   15.0001    8.7290   11.0278 O   0  0  0  0  0  0  0  0  0  0  0  0
  4  3  1  0
  4  9  2  0
  4  5  1  0
  5  6  2  0
  6  7  1  0
  6 12  1  0
  7  8  2  0
  7 11  1  0
  8  9  1  0
 10 11  1  0
 10 12  1  0
  8  1  1  0
 10  2  1  1
M  END
>  <generation_date>  (115) 
None

>  <inchikey>  (115) 
XXAJPDRXNKHETM-SCSAIBSYSA-N

>  <ref_mols>  (115) 
cx1305a,cx1134a

>  <tags>  (115) 
['butcher: adenine', 'pure_merges', 'fragmenstein', 'select (HA) [batch1_adenine]', 'raw']

>  <ref_pdb>  (115) 
cx0300a

>  <alias>  (115) 
cx1134a-cx1305a

>  <submitter_name>  (115) 
None

>  <HIPPO ID>  (115) 
1423

>  <original ID>  (115) 
cx1134a-cx1305a

>  <method>  (115) 
None

>  <ref_url>  (115) 
None

>  <submitter_email>  (115) 
None

>  <original SMILES>  (115) 
C[C@@H]1Oc2cc(O)cc(N)c2O1

$$$$
cx1134a-cx1076a
     RDKit          3D

 12 12  0  0  0  0  0  0  0  0999 V2000
   13.3285   13.1073   10.9750 N   0  0  0  0  0  0  0  0  0  0  0  0
   14.6650   12.5641   11.0358 O   0  0  0  0  0  0  0  0  0  0  0  0
   15.8830    9.0718    9.4104 C   0  0  0  0  0  0  0  0  0  0  0  0
   14.7399    9.9491    9.8296 C   0  0  0  0  0  0  0  0  0  0  0  0
   13.5328    9.2574    9.1774 C   0  0  0  0  0  0  0  0  0  0  0  0
   14.9457    7.9667   14.8680 Br  0  0  0  0  0  0  0  0  0  0  0  0
   14.6802   11.4935   11.8805 C   0  0  0  0  0  0  0  0  0  0  0  0
   14.6771   11.7542   13.2576 C   0  0  0  0  0  0  0  0  0  0  0  0
   14.7762   10.7029   14.1524 C   0  0  0  0  0  0  0  0  0  0  0  0
   14.8454    9.4059   13.6542 C   0  0  0  0  0  0  0  0  0  0  0  0
   14.8177    9.1456   12.2729 C   0  0  0  0  0  0  0  0  0  0  0  0
   14.7518   10.1946   11.3416 C   0  0  0  0  0  0  0  0  0  0  0  0
  2  1  1  0
  4  3  1  0
  5  4  1  0
  7 12  2  0
  7  8  1  0
  8  9  2  0
  9 10  1  0
 10 11  2  0
 10  6  1  0
 11 12  1  0
 12  4  1  0
  2  7  1  0
M  END
>  <generation_date>  (116) 
None

>  <inchikey>  (116) 
LCANJRPVBLCVAU-UHFFFAOYSA-N

>  <ref_mols>  (116) 
cx1134a,cx1076a

>  <tags>  (116) 
['butcher: adenine', 'pure_merges', 'fragmenstein', 'select (HA) [batch1_adenine]', 'raw']

>  <ref_pdb>  (116) 
cx0300a

>  <alias>  (116) 
cx1134a-cx1076a

>  <submitter_name>  (116) 
None

>  <HIPPO ID>  (116) 
1430

>  <original ID>  (116) 
cx1134a-cx1076a

>  <method>  (116) 
None

>  <ref_url>  (116) 
None

>  <submitter_email>  (116) 
None

>  <original SMILES>  (116) 
CC(C)c1cc(Br)ccc1ON

$$$$
cx1134a-cx0406a
     RDKit          3D

 17 18  0  0  0  0  0  0  0  0999 V2000
   13.9833   11.9361   12.4968 N   0  0  0  0  0  0  0  0  0  0  0  0
   16.0318    9.1031    9.1261 C   0  0  0  0  0  0  0  0  0  0  0  0
   14.5100   13.2752   12.2756 O   0  0  0  0  0  0  0  0  0  0  0  0
   11.0849    6.4995   13.6851 O   0  0  0  0  0  0  0  0  0  0  0  0
   11.6949    5.6140   12.7580 C   0  0  0  0  0  0  0  0  0  0  0  0
   13.9847    7.3694   11.6101 N   0  0  0  0  0  0  0  0  0  0  0  0
   14.5200   10.9909   10.4984 N   0  0  0  0  0  0  0  0  0  0  0  0
   14.8597   10.9780   11.8959 C   0  0  2  0  0  0  0  0  0  0  0  0
   14.5923    9.6347   12.4392 N   0  0  0  0  0  0  0  0  0  0  0  0
   14.7201    8.5866   11.4294 C   0  0  2  0  0  0  0  0  0  0  0  0
   14.5721    9.4451    9.9010 S   0  0  0  0  0  4  0  0  0  0  0  0
   15.3278    6.4724   13.5188 C   0  0  0  0  0  0  0  0  0  0  0  0
   13.9540    6.8502   12.9606 C   0  0  2  0  0  0  0  0  0  0  0  0
   13.2027    5.5156   13.0082 C   0  0  1  0  0  0  0  0  0  0  0  0
   13.5836    5.0309   14.4060 C   0  0  0  0  0  0  0  0  0  0  0  0
   15.0142    5.5073   14.6528 C   0  0  0  0  0  0  0  0  0  0  0  0
   13.2713    8.8824    8.8989 C   0  0  0  0  0  0  0  0  0  0  0  0
  3  1  1  0
  5  4  1  0
  7  8  1  0
  7 11  1  0
  8  9  1  0
  9 10  1  0
 10  6  1  1
 10 11  1  0
 12 13  1  0
 12 16  1  0
 13 14  1  0
 13  6  1  6
 14 15  1  0
 14  5  1  1
 15 16  1  0
 11  2  1  0
  8  1  1  1
 11 17  1  0
M  END
>  <generation_date>  (117) 
None

>  <inchikey>  (117) 
YNUGPORRUYXXJV-SGIHWFKDSA-N

>  <ref_mols>  (117) 
cx1134a,cx0406a

>  <tags>  (117) 
['butcher: adenine', 'select (DF) [batch4_others]', 'pure_merges', 'butcher: phosphate', 'fragmenstein', 'select (HA) [batch4_others]', 'butcher: oxyanion', 'raw']

>  <ref_pdb>  (117) 
cx0300a

>  <alias>  (117) 
cx1134a-cx0406a

>  <submitter_name>  (117) 
None

>  <HIPPO ID>  (117) 
1433

>  <original ID>  (117) 
cx1134a-cx0406a

>  <method>  (117) 
None

>  <ref_url>  (117) 
None

>  <submitter_email>  (117) 
None

>  <original SMILES>  (117) 
CS1(C)N[C@@H](NO)N[C@H]1N[C@@H]1CCC[C@H]1CO

$$$$
cx1134a-cx1316a
     RDKit          3D

 13 13  0  0  0  0  0  0  0  0999 V2000
   14.3668   11.6235   10.1208 N   0  0  0  0  0  0  0  0  0  0  0  0
   14.8259    8.0394   11.1191 C   0  0  0  0  0  0  0  0  0  0  0  0
   13.7991   12.8181   10.5105 O   0  0  0  0  0  0  0  0  0  0  0  0
   14.9434    9.3582   10.3778 C   0  0  0  0  0  0  0  0  0  0  0  0
   14.0703    9.2015    9.1087 C   0  0  0  0  0  0  0  0  0  0  0  0
   14.6554   10.7621   11.0493 C   0  0  0  0  0  0  0  0  0  0  0  0
   15.0650   12.3129   16.5505 O   0  0  0  0  0  0  0  0  0  0  0  0
   14.7273   11.0960   12.5450 C   0  0  0  0  0  0  0  0  0  0  0  0
   14.7940   10.1528   13.5723 C   0  0  0  0  0  0  0  0  0  0  0  0
   14.9153   10.5379   14.9230 C   0  0  0  0  0  0  0  0  0  0  0  0
   14.9376   11.8823   15.2677 C   0  0  0  0  0  0  0  0  0  0  0  0
   14.8315   12.8439   14.2930 C   0  0  0  0  0  0  0  0  0  0  0  0
   14.7532   12.4451   12.9586 C   0  0  0  0  0  0  0  0  0  0  0  0
  3  1  1  0
  4  2  1  0
  5  4  1  0
  6  4  1  0
  6  1  2  3
  8 13  2  0
  8  9  1  0
  9 10  2  0
 10 11  1  0
 11 12  2  0
 11  7  1  0
 12 13  1  0
  8  6  1  0
M  END
>  <generation_date>  (118) 
None

>  <inchikey>  (118) 
YKXJEFWYSKVABH-UHFFFAOYSA-N

>  <ref_mols>  (118) 
cx1134a,cx1316a

>  <tags>  (118) 
['butcher: adenine', 'pure_merges', 'fragmenstein', 'select (HA) [batch1_adenine]', 'raw']

>  <ref_pdb>  (118) 
cx0300a

>  <alias>  (118) 
cx1134a-cx1316a

>  <submitter_name>  (118) 
None

>  <HIPPO ID>  (118) 
1435

>  <original ID>  (118) 
cx1134a-cx1316a

>  <method>  (118) 
None

>  <ref_url>  (118) 
None

>  <submitter_email>  (118) 
None

>  <original SMILES>  (118) 
CC(C)C(=NO)c1ccc(O)cc1

$$$$
cx1134a-cx0894a
     RDKit          3D

 12 13  0  0  0  0  0  0  0  0999 V2000
   15.8909    9.1013    9.2798 C   0  0  0  0  0  0  0  0  0  0  0  0
   14.6564    9.7841    9.7666 C   0  0  0  0  0  0  0  0  0  0  0  0
   13.4845    9.0634    9.0963 C   0  0  0  0  0  0  0  0  0  0  0  0
   14.5875   12.2481   13.7907 N   0  0  0  0  0  0  0  0  0  0  0  0
   14.7295   10.9414   13.4101 C   0  0  0  0  0  0  0  0  0  0  0  0
   14.6749   10.9825   12.0201 C   0  0  0  0  0  0  0  0  0  0  0  0
   14.5258   12.2786   11.5777 N   0  0  0  0  0  0  0  0  0  0  0  0
   14.4737   13.0054   12.6652 C   0  0  0  0  0  0  0  0  0  0  0  0
   14.7181    9.7789   11.2801 C   0  0  0  0  0  0  0  0  0  0  0  0
   14.8666    9.7675   14.1496 C   0  0  0  0  0  0  0  0  0  0  0  0
   14.8903    8.5736   13.4268 C   0  0  0  0  0  0  0  0  0  0  0  0
   14.7960    8.5724   12.0299 C   0  0  0  0  0  0  0  0  0  0  0  0
  2  1  1  0
  3  2  1  0
  4  5  1  0
  4  8  1  0
  5 10  2  0
  5  6  1  0
  6  9  2  0
  6  7  1  0
  7  8  2  0
  9 12  1  0
 10 11  1  0
 11 12  2  0
  2  9  1  0
M  END
>  <generation_date>  (119) 
None

>  <inchikey>  (119) 
DZVXXHSUENHLJH-UHFFFAOYSA-N

>  <ref_mols>  (119) 
cx1134a,cx0894a

>  <tags>  (119) 
['butcher: adenine', 'pure_merges', 'fragmenstein', 'select (HA) [batch1_adenine]', 'raw']

>  <ref_pdb>  (119) 
cx0300a

>  <alias>  (119) 
cx1134a-cx0894a

>  <submitter_name>  (119) 
None

>  <HIPPO ID>  (119) 
1439

>  <original ID>  (119) 
cx1134a-cx0894a

>  <method>  (119) 
None

>  <ref_url>  (119) 
None

>  <submitter_email>  (119) 
None

>  <original SMILES>  (119) 
CC(C)c1cccc2[nH]cnc12

$$$$
cx1440a-cx1316a
     RDKit          3D

 15 17  0  0  0  0  0  0  0  0999 V2000
   14.6706    8.1426   10.1072 C   0  0  0  0  0  0  0  0  0  0  0  0
   15.0167   12.2871   16.3571 O   0  0  0  0  0  0  0  0  0  0  0  0
   14.6240   11.8862   12.2368 C   0  0  0  0  0  0  0  0  0  0  0  0
   14.6478   11.8178   10.8292 N   0  0  0  0  0  0  0  0  0  0  0  0
   14.7008   10.5999   10.2039 C   0  0  0  0  0  0  0  0  0  0  0  0
   14.7867    9.4238   10.8462 C   0  0  0  0  0  0  0  0  0  0  0  0
   14.8714    9.4536   12.3394 C   0  0  0  0  0  0  0  0  0  0  0  0
   14.8098   10.7088   12.9975 C   0  0  0  0  0  0  0  0  0  0  0  0
   14.9809    8.2793   13.1012 C   0  0  0  0  0  0  0  0  0  0  0  0
   15.0627    8.3441   14.4877 C   0  0  0  0  0  0  0  0  0  0  0  0
   15.0323    9.5790   15.1351 C   0  0  0  0  0  0  0  0  0  0  0  0
   14.9079   10.7846   14.4130 C   0  0  0  0  0  0  0  0  0  0  0  0
   14.8570   12.0608   15.0174 C   0  0  0  0  0  0  0  0  0  0  0  0
   14.6409   13.2053   14.2705 C   0  0  0  0  0  0  0  0  0  0  0  0
   14.5287   13.1109   12.8921 C   0  0  0  0  0  0  0  0  0  0  0  0
  3  8  2  0
  3  4  1  0
  4  5  1  0
  5  6  2  0
  6  7  1  0
  7  9  2  0
  7  8  1  0
  8 12  1  0
  9 10  1  0
 10 11  2  0
 11 12  1  0
 13 14  1  0
 13  2  1  0
 14 15  2  0
  3 15  1  0
 12 13  2  0
  6  1  1  0
M  END
>  <generation_date>  (120) 
None

>  <inchikey>  (120) 
JBBKGZXCROZOLT-UHFFFAOYSA-N

>  <ref_mols>  (120) 
cx1440a,cx1316a

>  <tags>  (120) 
['butcher: adenine', 'pure_merges', 'fragmenstein', 'select (HA) [batch1_adenine]', 'raw']

>  <ref_pdb>  (120) 
cx0300a

>  <alias>  (120) 
cx1440a-cx1316a

>  <submitter_name>  (120) 
None

>  <HIPPO ID>  (120) 
1460

>  <original ID>  (120) 
cx1440a-cx1316a

>  <method>  (120) 
None

>  <ref_url>  (120) 
None

>  <submitter_email>  (120) 
None

>  <original SMILES>  (120) 
CC1=CNc2ccc(O)c3cccc1c23

$$$$
cx1440a-cx1431a
     RDKit          3D

 14 16  0  0  0  0  0  0  0  0999 V2000
   14.5797    9.3842    8.9537 N   0  0  0  0  0  0  0  0  0  0  0  0
   14.6967   11.2255   12.1103 C   0  0  0  0  0  0  0  0  0  0  0  0
   14.7616   10.9235   10.7345 N   0  0  0  0  0  0  0  0  0  0  0  0
   14.7460    9.6212   10.2832 C   0  0  0  0  0  0  0  0  0  0  0  0
   14.8082    8.5851   11.1453 C   0  0  0  0  0  0  0  0  0  0  0  0
   14.9033    8.8528   12.5955 C   0  0  0  0  0  0  0  0  0  0  0  0
   14.8396   10.1884   13.0459 C   0  0  0  0  0  0  0  0  0  0  0  0
   15.0367    7.8106   13.5125 C   0  0  0  0  0  0  0  0  0  0  0  0
   15.1110    8.0961   14.8745 C   0  0  0  0  0  0  0  0  0  0  0  0
   15.0337    9.4158   15.3288 C   0  0  0  0  0  0  0  0  0  0  0  0
   14.8838   10.4761   14.4258 C   0  0  0  0  0  0  0  0  0  0  0  0
   14.7579   11.8057   14.8539 C   0  0  0  0  0  0  0  0  0  0  0  0
   14.5525   12.8248   13.9278 C   0  0  0  0  0  0  0  0  0  0  0  0
   14.5248   12.5288   12.5654 C   0  0  0  0  0  0  0  0  0  0  0  0
  2  7  2  0
  2  3  1  0
  3  4  1  0
  4  5  2  0
  5  6  1  0
  6  8  2  0
  6  7  1  0
  7 11  1  0
  8  9  1  0
  9 10  2  0
 10 11  1  0
 12 13  1  0
 13 14  2  0
  2 14  1  0
 11 12  2  0
  1  4  1  0
M  END
>  <generation_date>  (121) 
None

>  <inchikey>  (121) 
ZYQPBTDDYQVXQY-UHFFFAOYSA-N

>  <ref_mols>  (121) 
cx1440a,cx1431a

>  <tags>  (121) 
['butcher: adenine', 'pure_merges', 'fragmenstein', 'select (HA) [batch1_adenine]', 'raw']

>  <ref_pdb>  (121) 
cx0300a

>  <alias>  (121) 
cx1440a-cx1431a

>  <submitter_name>  (121) 
None

>  <HIPPO ID>  (121) 
1466

>  <original ID>  (121) 
cx1440a-cx1431a

>  <method>  (121) 
None

>  <ref_url>  (121) 
None

>  <submitter_email>  (121) 
None

>  <original SMILES>  (121) 
NC1=Cc2cccc3cccc(c23)N1

$$$$
cx1194a-cx1298a
     RDKit          3D

 15 15  0  0  0  0  0  0  0  0999 V2000
   14.3850   13.0662   12.0844 O   0  0  0  0  0  0  0  0  0  0  0  0
   15.5186   12.6360   14.8997 C   0  0  0  0  0  0  0  0  0  0  0  0
   14.8679    8.9189   10.0029 C   0  0  0  0  0  0  0  0  0  0  0  0
   15.2858    6.2536   12.0260 C   0  0  0  0  0  0  0  0  0  0  0  0
   14.6991   11.1970   10.7833 N   0  0  0  0  0  0  0  0  0  0  0  0
   14.6152   11.8735   11.9595 C   0  0  0  0  0  0  0  0  0  0  0  0
   14.8128   10.9110   13.0933 C   0  0  0  0  0  0  0  0  0  0  0  0
   14.9621    9.6767   12.5655 C   0  0  0  0  0  0  0  0  0  0  0  0
   14.8416    9.9500   11.0962 C   0  0  0  0  0  0  0  0  0  0  0  0
   15.2095    8.4032   13.0951 N   0  0  0  0  0  0  0  0  0  0  0  0
   14.6525   11.4430   14.4969 C   0  0  0  0  0  0  0  0  0  0  0  0
   14.7663   10.4410   15.6395 C   0  0  0  0  0  0  0  0  0  0  0  0
   14.4517    7.3126   12.5970 N   0  0  0  0  0  0  0  0  0  0  0  0
   13.5994    6.7681   13.6552 C   0  0  0  0  0  0  0  0  0  0  0  0
   16.0582    8.1594   14.2641 C   0  0  0  0  0  0  0  0  0  0  0  0
  5  6  1  0
  5  9  2  0
  6  7  1  0
  6  1  2  0
  7 11  1  0
  7  8  2  0
  8  9  1  0
  8 10  1  0
  9  3  1  0
 11 12  1  0
 11  2  1  0
 13  4  1  0
 13 14  1  0
 10 13  1  0
 10 15  1  0
M  END
>  <generation_date>  (122) 
None

>  <inchikey>  (122) 
OTXHULFVAUIJDZ-UHFFFAOYSA-N

>  <ref_mols>  (122) 
cx1298a,cx1194a

>  <tags>  (122) 
['butcher: adenine', 'pure_merges', 'fragmenstein', 'select (DF) [batch1_adenine]', 'raw']

>  <ref_pdb>  (122) 
cx0300a

>  <alias>  (122) 
cx1194a-cx1298a

>  <submitter_name>  (122) 
None

>  <HIPPO ID>  (122) 
1474

>  <original ID>  (122) 
cx1194a-cx1298a

>  <method>  (122) 
None

>  <ref_url>  (122) 
None

>  <submitter_email>  (122) 
None

>  <original SMILES>  (122) 
CC1=NC(=O)C(C(C)C)=C1N(C)N(C)C

$$$$
cx1194a-cx0394a
     RDKit          3D

 15 17  0  0  0  0  0  0  0  0999 V2000
   15.4488    7.2791   14.6429 C   0  0  0  0  0  0  0  0  0  0  0  0
   14.6408   13.4540   12.0602 O   0  0  0  0  0  0  0  0  0  0  0  0
   15.5270   12.3219   15.3037 C   0  0  0  0  0  0  0  0  0  0  0  0
   15.0151    8.9990   10.3833 C   0  0  0  0  0  0  0  0  0  0  0  0
   14.9562    8.0004   11.6030 C   0  0  2  0  0  0  0  0  0  0  0  0
   13.7646    7.3767   11.6670 F   0  0  0  0  0  0  0  0  0  0  0  0
   14.8939   11.5423   10.6965 N   0  0  0  0  0  0  0  0  0  0  0  0
   14.8879   12.2662   11.9250 C   0  0  0  0  0  0  0  0  0  0  0  0
   15.2937   11.2742   13.0068 C   0  0  2  0  0  0  0  0  0  0  0  0
   14.6138   10.1110   12.4008 C   0  0  1  0  0  0  0  0  0  0  0  0
   14.5596   10.2372   10.9809 N   0  0  0  0  0  0  0  0  0  0  0  0
   14.7811    8.5552   14.1375 C   0  0  2  0  0  0  0  0  0  0  0  0
   15.1686    8.8532   12.7713 N   0  0  0  0  0  0  0  0  0  0  0  0
   14.8699   11.2326   14.4753 C   0  0  1  0  0  0  0  0  0  0  0  0
   15.1912    9.7896   15.0481 C   0  0  0  0  0  0  0  0  0  0  0  0
  5  6  1  1
  5  4  1  0
  7  8  1  0
  7 11  1  0
  9  8  1  6
  8  2  2  0
  9 14  1  0
  9 10  1  0
 10 11  1  6
 10 13  1  0
 11  4  1  0
 12  1  1  1
 12 15  1  0
 12 13  1  0
 14 15  1  0
 14  3  1  1
  5 13  1  0
M  END
>  <generation_date>  (123) 
None

>  <inchikey>  (123) 
UZLDEAQWTXRPNY-CSEVWPSDSA-N

>  <ref_mols>  (123) 
cx1194a,cx0394a

>  <tags>  (123) 
['butcher: adenine', 'pure_merges', 'fragmenstein', 'select (HA) [batch1_adenine]', 'raw']

>  <ref_pdb>  (123) 
cx0300a

>  <alias>  (123) 
cx1194a-cx0394a

>  <submitter_name>  (123) 
None

>  <HIPPO ID>  (123) 
1483

>  <original ID>  (123) 
cx1194a-cx0394a

>  <method>  (123) 
None

>  <ref_url>  (123) 
None

>  <submitter_email>  (123) 
None

>  <original SMILES>  (123) 
C[C@@H]1C[C@H](C)N2[C@@H](F)CN3NC(=O)[C@@H]1[C@@H]32

$$$$
cx1194a-cx0300a
     RDKit          3D

 22 24  0  0  0  0  0  0  0  0999 V2000
   15.0414    7.0494   14.7646 C   0  0  0  0  0  0  0  0  0  0  0  0
   14.5205   13.0754   12.0786 O   0  0  0  0  0  0  0  0  0  0  0  0
   14.8048   12.1350   15.0552 C   0  0  0  0  0  0  0  0  0  0  0  0
   14.8917    8.9634    9.7447 C   0  0  0  0  0  0  0  0  0  0  0  0
   15.2806    6.0409   13.8575 N   0  0  0  0  0  0  0  0  0  0  0  0
   18.5066    3.7736   11.7769 O   0  0  0  0  0  0  0  0  0  0  0  0
   14.8824    6.8564   15.9627 O   0  0  0  0  0  0  0  0  0  0  0  0
   14.7410   11.2727   10.6070 N   0  0  0  0  0  0  0  0  0  0  0  0
   14.6780   11.8877   11.8499 C   0  0  0  0  0  0  0  0  0  0  0  0
   14.7957   10.8589   12.8973 C   0  0  0  0  0  0  0  0  0  0  0  0
   14.8665    9.6626   12.2327 C   0  0  0  0  0  0  0  0  0  0  0  0
   14.8318    9.9942   10.8177 C   0  0  0  0  0  0  0  0  0  0  0  0
   14.9673    8.4223   14.1295 C   0  0  0  0  0  0  0  0  0  0  0  0
   14.9564    8.4279   12.7635 N   0  0  0  0  0  0  0  0  0  0  0  0
   14.8299   10.8576   14.2803 C   0  0  0  0  0  0  0  0  0  0  0  0
   14.9119    9.5924   14.9106 C   0  0  0  0  0  0  0  0  0  0  0  0
   16.5258    4.1467   14.8649 C   0  0  0  0  0  0  0  0  0  0  0  0
   17.7545    4.3302   13.9818 C   0  0  0  0  0  0  0  0  0  0  0  0
   17.5553    3.9780   12.5224 C   0  0  0  0  0  0  0  0  0  0  0  0
   16.2853    4.0043   12.0203 N   0  0  0  0  0  0  0  0  0  0  0  0
   15.1249    3.8140   12.8642 C   0  0  0  0  0  0  0  0  0  0  0  0
   15.2499    4.6146   14.1625 C   0  0  2  0  0  0  0  0  0  0  0  0
  5  1  1  0
  7  1  2  0
  8  9  1  0
  8 12  2  0
  9 10  1  0
  9  2  2  0
 10 15  2  0
 10 11  1  0
 11 12  1  0
 11 14  2  0
 12  4  1  0
 13  1  1  0
 13 16  2  0
 13 14  1  0
 15 16  1  0
 15  3  1  0
 17 22  1  0
 17 18  1  0
 18 19  1  0
 19 20  1  0
 19  6  2  0
 20 21  1  0
 21 22  1  0
 22  5  1  6
M  END
>  <generation_date>  (124) 
None

>  <inchikey>  (124) 
YWJFGTHZNXFVBZ-SECBINFHSA-N

>  <ref_mols>  (124) 
cx1194a,cx0300a

>  <tags>  (124) 
['butcher: adenine', 'pure_merges', 'fragmenstein', 'select (HA) [batch4_others]', 'butcher: oxyanion', 'raw']

>  <ref_pdb>  (124) 
cx0300a

>  <alias>  (124) 
cx1194a-cx0300a

>  <submitter_name>  (124) 
None

>  <HIPPO ID>  (124) 
1487

>  <original ID>  (124) 
cx1194a-cx0300a

>  <method>  (124) 
None

>  <ref_url>  (124) 
None

>  <submitter_email>  (124) 
None

>  <original SMILES>  (124) 
CC1=NC(=O)c2c(C)cc(C(=O)N[C@@H]3CCC(=O)NC3)nc21

$$$$
cx1194a-cx1417a
     RDKit          3D

 14 15  0  0  0  0  0  0  0  0999 V2000
   15.4399    7.5638   14.9661 C   0  0  0  0  0  0  0  0  0  0  0  0
   14.4471   13.2762   11.8714 O   0  0  0  0  0  0  0  0  0  0  0  0
   14.7243   12.5783   14.8729 C   0  0  0  0  0  0  0  0  0  0  0  0
   14.8923    9.0204    9.8059 C   0  0  0  0  0  0  0  0  0  0  0  0
   14.3814    7.2758   16.0102 C   0  0  0  0  0  0  0  0  0  0  0  0
   14.6756   11.3828   10.5040 N   0  0  0  0  0  0  0  0  0  0  0  0
   14.6088   12.0782   11.7039 C   0  0  0  0  0  0  0  0  0  0  0  0
   14.7615   11.1387   12.8135 C   0  0  0  0  0  0  0  0  0  0  0  0
   14.8710    9.9030   12.2384 C   0  0  0  0  0  0  0  0  0  0  0  0
   14.8113   10.1254   10.8039 C   0  0  0  0  0  0  0  0  0  0  0  0
   15.1522    8.8349   14.2120 C   0  0  0  0  0  0  0  0  0  0  0  0
   15.0373    8.7271   12.8655 N   0  0  0  0  0  0  0  0  0  0  0  0
   14.8301   11.2588   14.1850 C   0  0  0  0  0  0  0  0  0  0  0  0
   15.0582   10.0683   14.8931 C   0  0  0  0  0  0  0  0  0  0  0  0
  5  1  1  0
  6  7  1  0
  6 10  2  0
  7  8  1  0
  7  2  2  0
  8 13  2  0
  8  9  1  0
  9 10  1  0
  9 12  2  0
 10  4  1  0
 11  1  1  0
 11 14  2  0
 11 12  1  0
 13 14  1  0
 13  3  1  0
M  END
>  <generation_date>  (125) 
None

>  <inchikey>  (125) 
DIRVEKCZPJVULX-UHFFFAOYSA-N

>  <ref_mols>  (125) 
cx1194a,cx1417a

>  <tags>  (125) 
['butcher: adenine', 'pure_merges', 'fragmenstein', 'select (JA) [batch1_adenine]', 'raw']

>  <ref_pdb>  (125) 
cx0300a

>  <alias>  (125) 
cx1194a-cx1417a

>  <submitter_name>  (125) 
None

>  <HIPPO ID>  (125) 
1491

>  <original ID>  (125) 
cx1194a-cx1417a

>  <method>  (125) 
None

>  <ref_url>  (125) 
None

>  <submitter_email>  (125) 
None

>  <original SMILES>  (125) 
CCc1cc(C)c2c(n1)C(C)=NC2=O

$$$$
cx1194a-cx0316a
     RDKit          3D

 27 30  0  0  0  0  0  0  0  0999 V2000
   15.2639    7.5568   15.0822 C   0  0  0  0  0  0  0  0  0  0  0  0
   14.4593   13.2740   11.9154 O   0  0  0  0  0  0  0  0  0  0  0  0
   14.6905   12.5907   14.9474 C   0  0  0  0  0  0  0  0  0  0  0  0
   15.0345    8.9858    9.9041 C   0  0  0  0  0  0  0  0  0  0  0  0
   18.2279    4.6808   12.1004 O   0  0  0  0  0  0  0  0  0  0  0  0
   13.9373    7.9857   10.1591 C   0  0  0  0  0  0  0  0  0  0  0  0
   15.7647    3.5926   11.3516 C   0  0  0  0  0  0  0  0  0  0  0  0
   14.7393   11.3680   10.5753 N   0  0  0  0  0  0  0  0  0  0  0  0
   14.6450   12.0767   11.7687 C   0  0  0  0  0  0  0  0  0  0  0  0
   14.7896   11.1524   12.8956 C   0  0  0  0  0  0  0  0  0  0  0  0
   14.9385    9.9200   12.3350 C   0  0  0  0  0  0  0  0  0  0  0  0
   14.9088   10.1183   10.8908 C   0  0  0  0  0  0  0  0  0  0  0  0
   15.0867    8.8378   14.3220 C   0  0  0  0  0  0  0  0  0  0  0  0
   15.0709    8.7473   12.9748 N   0  0  0  0  0  0  0  0  0  0  0  0
   14.8031   11.2657   14.2710 C   0  0  0  0  0  0  0  0  0  0  0  0
   14.9671   10.0678   14.9965 C   0  0  0  0  0  0  0  0  0  0  0  0
   15.2236    6.0257   11.0544 N   0  0  0  0  0  0  0  0  0  0  0  0
   14.2908    6.5860   10.3252 C   0  0  0  0  0  0  0  0  0  0  0  0
   13.4639    5.7111    9.6996 O   0  0  0  0  0  0  0  0  0  0  0  0
   13.9201    4.4552   10.0322 N   0  0  0  0  0  0  0  0  0  0  0  0
   14.9381    4.7023   10.8626 C   0  0  0  0  0  0  0  0  0  0  0  0
   15.4723    3.1673   13.7606 C   0  0  0  0  0  0  0  0  0  0  0  0
   16.2150    3.7232   12.7368 N   0  0  0  0  0  0  0  0  0  0  0  0
   17.4682    4.2674   12.9671 C   0  0  0  0  0  0  0  0  0  0  0  0
   17.9155    4.3192   14.3847 C   0  0  0  0  0  0  0  0  0  0  0  0
   17.1612    3.7839   15.3506 C   0  0  0  0  0  0  0  0  0  0  0  0
   15.9043    3.1705   15.0255 C   0  0  0  0  0  0  0  0  0  0  0  0
  6  4  1  0
  8  9  1  0
  8 12  2  0
  9 10  1  0
  9  2  2  0
 10 15  2  0
 10 11  1  0
 11 12  1  0
 11 14  2  0
 12  4  1  0
 13  1  1  0
 13 16  2  0
 13 14  1  0
 15 16  1  0
 15  3  1  0
 17 18  2  0
 17 21  1  0
 18  6  1  0
 18 19  1  0
 19 20  1  0
 20 21  2  0
 21  7  1  0
 22 27  2  0
 22 23  1  0
 23  7  1  0
 23 24  1  0
 24 25  1  0
 24  5  2  0
 25 26  2  0
 26 27  1  0
M  END
>  <generation_date>  (126) 
None

>  <inchikey>  (126) 
GSQHXOGHYYYERO-UHFFFAOYSA-N

>  <ref_mols>  (126) 
cx1194a,cx0316a

>  <tags>  (126) 
['butcher: adenine', 'select (DF) [batch4_others]', 'pure_merges', 'fragmenstein', 'butcher: oxyanion', 'raw']

>  <ref_pdb>  (126) 
cx0300a

>  <alias>  (126) 
cx1194a-cx0316a

>  <submitter_name>  (126) 
None

>  <HIPPO ID>  (126) 
1493

>  <original ID>  (126) 
cx1194a-cx0316a

>  <method>  (126) 
None

>  <ref_url>  (126) 
None

>  <submitter_email>  (126) 
None

>  <original SMILES>  (126) 
Cc1cc(C)c2c(n1)C(CCc1nc(Cn3ccccc3=O)no1)=NC2=O

$$$$
cx0892a-cx0281a_copy
     RDKit          3D

 19 21  0  0  0  0  0  0  0  0999 V2000
   14.9175    9.5552    9.4249 C   0  0  0  0  0  0  0  0  0  0  0  0
   15.0587    7.3702   11.2624 O   0  0  0  0  0  0  0  0  0  0  0  0
   14.8062    8.1761   12.1544 C   0  0  0  0  0  0  0  0  0  0  0  0
   14.2590    6.3816   13.7878 C   0  0  0  0  0  0  0  0  0  0  0  0
   14.4800    7.7730   13.4281 N   0  0  0  0  0  0  0  0  0  0  0  0
   14.8464   10.2115   10.7097 N   0  0  0  0  0  0  0  0  0  0  0  0
   14.8118    9.6128   11.9522 C   0  0  0  0  0  0  0  0  0  0  0  0
   14.7403   10.6723   12.8467 C   0  0  0  0  0  0  0  0  0  0  0  0
   14.6439   11.8263   12.0532 C   0  0  0  0  0  0  0  0  0  0  0  0
   14.7262   11.5500   10.7557 N   0  0  0  0  0  0  0  0  0  0  0  0
   12.0185    5.8437   12.5997 C   0  0  0  0  0  0  0  0  0  0  0  0
   12.7776    5.9710   13.9150 C   0  0  2  0  0  0  0  0  0  0  0  0
   11.7976    7.1162   14.9275 S   0  0  0  0  0  0  0  0  0  0  0  0
   10.2107    6.6010   14.2270 C   0  0  2  0  0  0  0  0  0  0  0  0
   10.5472    6.2514   12.7689 C   0  0  0  0  0  0  0  0  0  0  0  0
    8.8663    6.0732   16.0095 C   0  0  0  0  0  0  0  0  0  0  0  0
    8.3061    7.2810   15.4396 N   0  0  0  0  0  0  0  0  0  0  0  0
    9.2245    7.6631   14.3675 N   0  0  0  0  0  0  0  0  0  0  0  0
    9.6152    5.4712   14.9193 N   0  0  0  0  0  0  0  0  0  0  0  0
  3  2  2  0
  5  4  1  0
  5  3  1  0
  6  1  1  0
  6  7  1  0
  6 10  1  0
  7  8  2  0
  7  3  1  0
  8  9  1  0
  9 10  2  0
 11 12  1  0
 11 15  1  0
 12  4  1  6
 12 13  1  0
 14 13  1  0
 14 15  1  6
 16 17  1  0
 16 19  1  0
 17 18  1  0
 14 18  1  0
 14 19  1  0
M  END
>  <generation_date>  (127) 
None

>  <inchikey>  (127) 
ZNHLZZKVXUVQKY-KWQFWETISA-N

>  <ref_mols>  (127) 
cx0892a,cx0281a

>  <tags>  (127) 
['butcher: adenine', 'select (DF) [batch4_others]', 'pure_merges', 'butcher: phosphate', 'fragmenstein', 'select (HA) [batch4_others]', 'raw']

>  <ref_pdb>  (127) 
cx0300a

>  <alias>  (127) 
cx0892a-cx0281a_copy

>  <submitter_name>  (127) 
None

>  <HIPPO ID>  (127) 
1499

>  <original ID>  (127) 
cx0892a-cx0281a_copy

>  <method>  (127) 
None

>  <ref_url>  (127) 
None

>  <submitter_email>  (127) 
None

>  <original SMILES>  (127) 
Cn1nccc1C(=O)NC[C@@H]1CC[C@@]2(NCNN2)S1

$$$$
cx0892a-cx0544a
     RDKit          3D

 23 25  0  0  0  0  0  0  0  0999 V2000
   14.7109   10.8129   10.1719 C   0  0  0  0  0  0  0  0  0  0  0  0
   14.8904    8.1414   11.4636 O   0  0  0  0  0  0  0  0  0  0  0  0
   14.8304    8.7827   12.5163 C   0  0  0  0  0  0  0  0  0  0  0  0
   14.4846    6.6851   13.7631 C   0  0  0  0  0  0  0  0  0  0  0  0
   14.6957    8.1187   13.7196 N   0  0  0  0  0  0  0  0  0  0  0  0
   15.0226   16.0871   14.2587 C   0  0  0  0  0  0  0  0  0  0  0  0
   14.6727   14.9196   13.6613 N   0  0  0  0  0  0  0  0  0  0  0  0
   14.9510   17.1414   13.4082 N   0  0  0  0  0  0  0  0  0  0  0  0
   15.3835   16.2315   15.4121 O   0  0  0  0  0  0  0  0  0  0  0  0
   14.3396   11.0766   11.5598 N   0  0  0  0  0  0  0  0  0  0  0  0
   15.0431   10.3333   12.6005 C   0  0  1  0  0  0  0  0  0  0  0  0
   14.6170   11.0700   13.8681 C   0  0  1  0  0  0  0  0  0  0  0  0
   14.4469   12.4805   11.9137 N   0  0  0  0  0  0  0  0  0  0  0  0
   12.4252    5.6738   12.5699 C   0  0  0  0  0  0  0  0  0  0  0  0
   13.0307    6.3768   13.5938 C   0  0  0  0  0  0  0  0  0  0  0  0
   11.8811    6.9088   14.7517 S   0  0  0  0  0  0  0  0  0  0  0  0
   10.5830    6.2303   13.8689 C   0  0  0  0  0  0  0  0  0  0  0  0
   11.0120    5.5921   12.7278 C   0  0  0  0  0  0  0  0  0  0  0  0
   14.9718   13.6016   14.1905 C   0  0  1  0  0  0  0  0  0  0  0  0
   14.6989   13.3445   15.6728 C   0  0  0  0  0  0  0  0  0  0  0  0
   15.3404   12.0216   16.1159 C   0  0  0  0  0  0  0  0  0  0  0  0
   15.6611   11.0468   14.9818 C   0  0  0  0  0  0  0  0  0  0  0  0
   14.2543   12.4863   13.3845 C   0  0  2  0  0  0  0  0  0  0  0  0
  3  2  2  0
  5  4  1  0
  5  3  1  0
  7  6  1  0
  8  6  1  0
  9  6  2  0
 10  1  1  0
 10 11  1  0
 10 13  1  0
 11 12  1  0
 11  3  1  1
 14 15  2  0
 14 18  1  0
 15  4  1  0
 15 16  1  0
 16 17  1  0
 17 18  2  0
 19 20  1  0
 19  7  1  6
 20 21  1  0
 21 22  1  0
 12 22  1  1
 23 19  1  0
 23 12  1  0
 23 13  1  6
M  END
>  <generation_date>  (128) 
None

>  <inchikey>  (128) 
IJHYHZFJXYOGQA-CYDGBPFRSA-N

>  <ref_mols>  (128) 
cx0544a,cx0892a

>  <tags>  (128) 
['butcher: adenine', 'select (DF) [batch4_others]', 'pure_merges', 'butcher: phosphate', 'fragmenstein', 'select (HA) [batch4_others]', 'raw']

>  <ref_pdb>  (128) 
cx0300a

>  <alias>  (128) 
cx0892a-cx0544a

>  <submitter_name>  (128) 
None

>  <HIPPO ID>  (128) 
1500

>  <original ID>  (128) 
cx0892a-cx0544a

>  <method>  (128) 
None

>  <ref_url>  (128) 
None

>  <submitter_email>  (128) 
None

>  <original SMILES>  (128) 
CN1N[C@H]2[C@H](CCC[C@@H]2NC(N)=O)[C@H]1C(=O)NCc1cccs1

$$$$
cx0892a-cx1151a
     RDKit          3D

 16 17  0  0  0  0  0  0  0  0999 V2000
   14.8936    9.6205    9.3631 C   0  0  0  0  0  0  0  0  0  0  0  0
   14.9662    7.4245   11.1232 O   0  0  0  0  0  0  0  0  0  0  0  0
   14.9201    8.2177   12.0606 C   0  0  0  0  0  0  0  0  0  0  0  0
   14.6887    6.4160   13.6948 C   0  0  0  0  0  0  0  0  0  0  0  0
   14.9879    7.7931   13.3672 N   0  0  0  0  0  0  0  0  0  0  0  0
    9.7683    7.4490   14.6588 O   0  0  0  0  0  0  0  0  0  0  0  0
   14.8240   10.2669   10.6520 N   0  0  0  0  0  0  0  0  0  0  0  0
   14.8459    9.6552   11.8866 C   0  0  0  0  0  0  0  0  0  0  0  0
   14.7557   10.7008   12.7954 C   0  0  0  0  0  0  0  0  0  0  0  0
   14.6152   11.8611   12.0174 C   0  0  0  0  0  0  0  0  0  0  0  0
   14.6843   11.6021   10.7157 N   0  0  0  0  0  0  0  0  0  0  0  0
   12.3432    5.5905   12.9523 C   0  0  0  0  0  0  0  0  0  0  0  0
   13.2029    6.3000   13.7680 C   0  0  0  0  0  0  0  0  0  0  0  0
   12.3497    7.2101   14.9427 S   0  0  0  0  0  0  0  0  0  0  0  0
   10.8573    6.8328   14.2325 C   0  0  0  0  0  0  0  0  0  0  0  0
   10.9778    5.8912   13.2372 C   0  0  0  0  0  0  0  0  0  0  0  0
  3  2  2  0
  5  4  1  0
  5  3  1  0
  7  1  1  0
  7  8  1  0
  7 11  1  0
  8  9  2  0
  8  3  1  0
  9 10  1  0
 10 11  2  0
 12 13  2  0
 12 16  1  0
 13  4  1  0
 13 14  1  0
 14 15  1  0
 15 16  2  0
  6 15  1  0
M  END
>  <generation_date>  (129) 
None

>  <inchikey>  (129) 
IMTCTUMLWQUKFC-UHFFFAOYSA-N

>  <ref_mols>  (129) 
cx1151a,cx0892a

>  <tags>  (129) 
['butcher: adenine', 'select (DF) [batch4_others]', 'pure_merges', 'butcher: phosphate', 'fragmenstein', 'raw']

>  <ref_pdb>  (129) 
cx0300a

>  <alias>  (129) 
cx0892a-cx1151a

>  <submitter_name>  (129) 
None

>  <HIPPO ID>  (129) 
1508

>  <original ID>  (129) 
cx0892a-cx1151a

>  <method>  (129) 
None

>  <ref_url>  (129) 
None

>  <submitter_email>  (129) 
None

>  <original SMILES>  (129) 
Cn1nccc1C(=O)NCc1ccc(O)s1

$$$$
cx0892a-cx1194a
     RDKit          3D

 18 20  0  0  0  0  0  0  0  0999 V2000
   14.9212   10.0758    9.4748 C   0  0  0  0  0  0  0  0  0  0  0  0
   14.8367    7.8197   11.6639 O   0  0  0  0  0  0  0  0  0  0  0  0
   14.5576    7.2395   14.4302 C   0  0  0  0  0  0  0  0  0  0  0  0
   14.8016   12.2552   15.2058 C   0  0  0  0  0  0  0  0  0  0  0  0
   14.4200   10.6412   10.6924 N   0  0  0  0  0  0  0  0  0  0  0  0
   14.9522   10.2149   11.9645 C   0  0  1  0  0  0  0  0  0  0  0  0
   14.4054   11.2566   12.9152 C   0  0  2  0  0  0  0  0  0  0  0  0
   14.3859   12.5139   12.0734 C   0  0  0  0  0  0  0  0  0  0  0  0
   14.1246   12.0381   10.7166 N   0  0  0  0  0  0  0  0  0  0  0  0
   12.9566    5.6808   13.0719 C   0  0  0  0  0  0  0  0  0  0  0  0
   13.2261    6.6264   14.0459 C   0  0  0  0  0  0  0  0  0  0  0  0
   11.7919    7.1107   14.8517 S   0  0  0  0  0  0  0  0  0  0  0  0
   10.8150    6.1336   13.8436 C   0  0  0  0  0  0  0  0  0  0  0  0
   11.5623    5.4158   12.9381 C   0  0  0  0  0  0  0  0  0  0  0  0
   14.7895    8.6700   13.9407 C   0  0  0  0  0  0  0  0  0  0  0  0
   14.7929    8.8865   12.5641 N   0  0  0  0  0  0  0  0  0  0  0  0
   15.1708   11.1429   14.2385 C   0  0  2  0  0  0  0  0  0  0  0  0
   14.9680    9.7219   14.7800 C   0  0  0  0  0  0  0  0  0  0  0  0
  5  1  1  0
  6  5  1  6
  5  9  1  0
  6  7  1  0
  7  8  1  6
  8  9  1  0
 10 11  2  0
 10 14  1  0
 11  3  1  0
 11 12  1  0
 12 13  1  0
 13 14  2  0
 15 18  2  0
 15 16  1  0
 17 18  1  0
 17  4  1  1
  7 17  1  0
  6 16  1  0
 16  2  1  0
  3 15  1  0
M  END
>  <generation_date>  (130) 
None

>  <inchikey>  (130) 
CKWFMDJYZBBFKD-ZWKOPEQDSA-N

>  <ref_mols>  (130) 
cx1194a,cx0892a

>  <tags>  (130) 
['butcher: adenine', 'select (DF) [batch4_others]', 'pure_merges', 'butcher: phosphate', 'fragmenstein', 'raw']

>  <ref_pdb>  (130) 
cx0300a

>  <alias>  (130) 
cx0892a-cx1194a

>  <submitter_name>  (130) 
None

>  <HIPPO ID>  (130) 
1511

>  <original ID>  (130) 
cx0892a-cx1194a

>  <method>  (130) 
None

>  <ref_url>  (130) 
None

>  <submitter_email>  (130) 
None

>  <original SMILES>  (130) 
C[C@H]1C=C(Cc2cccs2)N(O)[C@@H]2[C@@H]1CNN2C

$$$$
cx0892a-cx1203a_copy
     RDKit          3D

 18 20  0  0  0  0  0  0  0  0999 V2000
   14.5000    6.4369   13.7671 C   0  0  0  0  0  0  0  0  0  0  0  0
   14.9344    7.8077   13.5036 N   0  0  0  0  0  0  0  0  0  0  0  0
   15.0401   10.8717   14.6105 C   0  0  0  0  0  0  0  0  0  0  0  0
   14.3064   13.2945   12.8659 N   0  0  0  0  0  0  0  0  0  0  0  0
   14.7613   10.5227   10.9590 N   0  0  0  0  0  0  0  0  0  0  0  0
   14.8547    9.9073   12.2188 C   0  0  0  0  0  0  0  0  0  0  0  0
   14.8743   10.9405   13.1442 C   0  0  0  0  0  0  0  0  0  0  0  0
   14.6158   12.0870   12.3676 C   0  0  0  0  0  0  0  0  0  0  0  0
   14.6129   11.8554   11.0703 N   0  0  0  0  0  0  0  0  0  0  0  0
   12.3591    5.4460   12.6783 C   0  0  0  0  0  0  0  0  0  0  0  0
   13.0231    6.2013   13.6261 C   0  0  0  0  0  0  0  0  0  0  0  0
   11.9271    6.9407   14.7192 S   0  0  0  0  0  0  0  0  0  0  0  0
   10.5740    6.2889   13.9018 C   0  0  0  0  0  0  0  0  0  0  0  0
   10.9442    5.5043   12.8337 C   0  0  0  0  0  0  0  0  0  0  0  0
   14.6450    9.8008    9.7804 C   0  0  0  0  0  0  0  0  0  0  0  0
   14.5560    8.4710    9.8330 C   0  0  0  0  0  0  0  0  0  0  0  0
   14.7203    7.7950   11.0991 C   0  0  0  0  0  0  0  0  0  0  0  0
   14.8457    8.4552   12.2765 C   0  0  0  0  0  0  0  0  0  0  0  0
  2  1  1  0
  5  6  1  0
  5  9  1  0
  6  7  2  0
  7  8  1  0
  8  9  2  0
 10 11  2  0
 10 14  1  0
 11  1  1  0
 11 12  1  0
 12 13  1  0
 13 14  2  0
 15 16  2  0
 16 17  1  0
 17 18  2  0
  5 15  1  0
  6 18  1  0
 18  2  1  0
  3  7  1  0
  4  8  1  0
M  END
>  <generation_date>  (131) 
None

>  <inchikey>  (131) 
DIXNXVWQGJPPGN-UHFFFAOYSA-N

>  <ref_mols>  (131) 
cx0892a,cx1203a

>  <tags>  (131) 
['butcher: adenine', 'select (DF) [batch4_others]', 'pure_merges', 'butcher: phosphate', 'fragmenstein', 'raw']

>  <ref_pdb>  (131) 
cx0300a

>  <alias>  (131) 
cx0892a-cx1203a_copy

>  <submitter_name>  (131) 
None

>  <HIPPO ID>  (131) 
1517

>  <original ID>  (131) 
cx0892a-cx1203a_copy

>  <method>  (131) 
None

>  <ref_url>  (131) 
None

>  <submitter_email>  (131) 
None

>  <original SMILES>  (131) 
Cc1c(N)nn2cccc(NCc3cccs3)c12

$$$$
cx0892a-cx0839a_copy
     RDKit          3D

 18 20  0  0  0  0  0  0  0  0999 V2000
   14.4762    6.3761   13.6240 C   0  0  0  0  0  0  0  0  0  0  0  0
   14.9148    7.7615   13.4978 N   0  0  0  0  0  0  0  0  0  0  0  0
   14.7136   13.2777   13.6424 N   0  0  0  0  0  0  0  0  0  0  0  0
   14.7293   13.3472   15.0810 C   0  0  0  0  0  0  0  0  0  0  0  0
   14.7469   10.7548   11.3130 N   0  0  0  0  0  0  0  0  0  0  0  0
   14.8409    9.9669   12.4642 C   0  0  0  0  0  0  0  0  0  0  0  0
   14.8831   10.8451   13.5198 C   0  0  0  0  0  0  0  0  0  0  0  0
   14.7251   12.1196   12.9503 C   0  0  0  0  0  0  0  0  0  0  0  0
   14.6086   12.0694   11.6276 N   0  0  0  0  0  0  0  0  0  0  0  0
   12.3015    5.4579   12.5442 C   0  0  0  0  0  0  0  0  0  0  0  0
   12.9947    6.1674   13.5057 C   0  0  0  0  0  0  0  0  0  0  0  0
   11.9321    6.8727   14.6538 S   0  0  0  0  0  0  0  0  0  0  0  0
   10.5539    6.2667   13.8440 C   0  0  0  0  0  0  0  0  0  0  0  0
   10.8914    5.5219   12.7373 C   0  0  0  0  0  0  0  0  0  0  0  0
   14.7034   10.1858   10.0420 C   0  0  0  0  0  0  0  0  0  0  0  0
   14.6966    8.8540    9.9047 C   0  0  0  0  0  0  0  0  0  0  0  0
   14.7745    8.0180   11.0883 C   0  0  0  0  0  0  0  0  0  0  0  0
   14.8441    8.5283   12.3424 C   0  0  0  0  0  0  0  0  0  0  0  0
  2  1  1  0
  4  3  1  0
  5  6  1  0
  5  9  1  0
  6  7  2  0
  7  8  1  0
  8  9  2  0
 10 11  2  0
 10 14  1  0
 11  1  1  0
 11 12  1  0
 12 13  1  0
 13 14  2  0
 15 16  2  0
 16 17  1  0
 17 18  2  0
  5 15  1  0
  6 18  1  0
 18  2  1  0
  3  8  1  0
M  END
>  <generation_date>  (132) 
None

>  <inchikey>  (132) 
GJBULHZWSSDKSE-UHFFFAOYSA-N

>  <ref_mols>  (132) 
cx0892a,cx0839a

>  <tags>  (132) 
['butcher: adenine', 'select (DF) [batch4_others]', 'pure_merges', 'butcher: phosphate', 'fragmenstein', 'raw']

>  <ref_pdb>  (132) 
cx0300a

>  <alias>  (132) 
cx0892a-cx0839a_copy

>  <submitter_name>  (132) 
None

>  <HIPPO ID>  (132) 
1518

>  <original ID>  (132) 
cx0892a-cx0839a_copy

>  <method>  (132) 
None

>  <ref_url>  (132) 
None

>  <submitter_email>  (132) 
None

>  <original SMILES>  (132) 
CNc1cc2c(NCc3cccs3)cccn2n1

$$$$
cx0540a-cx0317a
     RDKit          3D

 23 24  0  0  0  0  0  0  0  0999 V2000
   17.7794    2.0927   15.5592 N   0  0  0  0  0  0  0  0  0  0  0  0
   15.7193    1.4138   16.4168 O   0  0  0  0  0  0  0  0  0  0  0  0
   19.2143    1.9862   15.7977 C   0  0  0  0  0  0  0  0  0  0  0  0
   16.9244    1.2295   16.2859 C   0  0  0  0  0  0  0  0  0  0  0  0
   17.6219    0.0343   16.9897 C   0  0  0  0  0  0  0  0  0  0  0  0
   20.0007   -4.4365   17.9468 F   0  0  0  0  0  0  0  0  0  0  0  0
   16.7210   -0.9789   17.4256 O   0  0  0  0  0  0  0  0  0  0  0  0
   14.9787    3.6602   14.8811 C   0  0  0  0  0  0  0  0  0  0  0  0
   18.3589    4.1162   11.5142 O   0  0  0  0  0  0  0  0  0  0  0  0
   15.5377    4.8010   11.9401 C   0  0  0  0  0  0  0  0  0  0  0  0
   15.0280    4.0532   10.7078 C   0  0  0  0  0  0  0  0  0  0  0  0
   14.2402    4.9474    9.9211 O   0  0  0  0  0  0  0  0  0  0  0  0
   17.3358   -1.9839   18.1261 C   0  0  0  0  0  0  0  0  0  0  0  0
   18.4625   -2.6680   17.6721 C   0  0  0  0  0  0  0  0  0  0  0  0
   18.9668   -3.7293   18.4226 C   0  0  0  0  0  0  0  0  0  0  0  0
   18.3811   -4.1080   19.6226 C   0  0  0  0  0  0  0  0  0  0  0  0
   17.2601   -3.4197   20.0759 C   0  0  0  0  0  0  0  0  0  0  0  0
   16.7285   -2.3710   19.3202 C   0  0  0  0  0  0  0  0  0  0  0  0
   17.4573    2.8264   14.4265 C   0  0  0  0  0  0  0  0  0  0  0  0
   16.1773    3.4493   14.0596 C   0  0  0  0  0  0  0  0  0  0  0  0
   16.3947    3.9742   12.8428 C   0  0  0  0  0  0  0  0  0  0  0  0
   17.8036    3.7322   12.5209 C   0  0  0  0  0  0  0  0  0  0  0  0
   18.3810    3.0474   13.5423 N   0  0  0  0  0  0  0  0  0  0  0  0
  3  1  1  0
  4  2  2  0
  4  1  1  0
  5  4  1  0
  7  5  1  0
 11 10  1  0
 12 11  1  0
 13 18  1  0
 13 14  2  0
 13  7  1  0
 14 15  1  0
 15 16  2  0
 15  6  1  0
 16 17  1  0
 17 18  2  0
 19 20  1  0
 19 23  2  0
 20  8  1  0
 20 21  2  0
 21 22  1  0
 21 10  1  0
 22  9  2  0
 22 23  1  0
 19  1  1  0
M  END
>  <generation_date>  (133) 
None

>  <inchikey>  (133) 
YCUZCIAGBTWQCQ-UHFFFAOYSA-N

>  <ref_mols>  (133) 
cx0317a,cx0540a

>  <tags>  (133) 
['select (DF) [batch3_oxyanion]', 'pure_merges', 'fragmenstein', 'butcher: oxyanion', 'raw']

>  <ref_pdb>  (133) 
cx0300a

>  <alias>  (133) 
cx0540a-cx0317a

>  <submitter_name>  (133) 
None

>  <HIPPO ID>  (133) 
1540

>  <original ID>  (133) 
cx0540a-cx0317a

>  <method>  (133) 
None

>  <ref_url>  (133) 
None

>  <submitter_email>  (133) 
None

>  <original SMILES>  (133) 
CC1=C(CCO)C(=O)N=C1N(C)C(=O)COc1cccc(F)c1

$$$$
cx0540a-cx0824a
     RDKit          3D

 23 25  0  0  0  0  0  0  0  0999 V2000
   17.1959    2.4717   16.1133 C   0  0  0  0  0  0  0  0  0  0  0  0
   17.2634    2.6517   14.5759 C   0  0  0  0  0  0  0  0  0  0  0  0
   15.6719    0.6536   15.6218 O   0  0  0  0  0  0  0  0  0  0  0  0
   18.6534    2.5079   16.5993 C   0  0  0  0  0  0  0  0  0  0  0  0
   16.5542    1.0934   16.3480 C   0  0  0  0  0  0  0  0  0  0  0  0
   19.9638   -4.9551   18.3039 F   0  0  0  0  0  0  0  0  0  0  0  0
   14.9867    0.8404   18.6474 F   0  0  0  0  0  0  0  0  0  0  0  0
   18.0206   -1.9014   18.0401 C   0  0  0  0  0  0  0  0  0  0  0  0
   18.9898   -2.8781   17.7901 C   0  0  0  0  0  0  0  0  0  0  0  0
   19.0707   -4.0032   18.6013 C   0  0  0  0  0  0  0  0  0  0  0  0
   18.2180   -4.1718   19.6819 C   0  0  0  0  0  0  0  0  0  0  0  0
   17.2546   -3.1987   19.9515 C   0  0  0  0  0  0  0  0  0  0  0  0
   17.1293   -2.0628   19.1312 C   0  0  0  0  0  0  0  0  0  0  0  0
   16.0088   -0.0122   18.4761 C   0  0  0  0  0  0  0  0  0  0  0  0
   16.9053    0.1616   17.4254 C   0  0  0  0  0  0  0  0  0  0  0  0
   17.9045   -0.7872   17.1975 C   0  0  0  0  0  0  0  0  0  0  0  0
   16.1307   -1.0969   19.3426 C   0  0  0  0  0  0  0  0  0  0  0  0
   16.2082    3.6479   18.1610 C   0  0  0  0  0  0  0  0  0  0  0  0
   16.3440    3.5871   16.7676 C   0  0  0  0  0  0  0  0  0  0  0  0
   15.6481    4.5657   16.0332 C   0  0  0  0  0  0  0  0  0  0  0  0
   14.8637    5.5052   16.6962 C   0  0  0  0  0  0  0  0  0  0  0  0
   14.7027    5.5381   18.0332 N   0  0  0  0  0  0  0  0  0  0  0  0
   15.3896    4.6153   18.7347 C   0  0  0  0  0  0  0  0  0  0  0  0
  2  1  1  0
  4  1  1  0
  5  3  2  0
  5  1  1  0
  8 13  1  0
  8  9  2  0
  9 10  1  0
 10 11  2  0
 10  6  1  0
 11 12  1  0
 12 13  2  0
 14 17  2  0
 14 15  1  0
 14  7  1  0
 15 16  2  0
 18 23  2  0
 18 19  1  0
 19 20  2  0
 20 21  1  0
 21 22  2  0
 22 23  1  0
  8 16  1  0
 13 17  1  0
 15  5  1  0
  1 19  1  0
M  END
>  <generation_date>  (134) 
None

>  <inchikey>  (134) 
HLVWNPOOEHBPQQ-UHFFFAOYSA-N

>  <ref_mols>  (134) 
cx0824a,cx0540a

>  <tags>  (134) 
['pure_merges', 'fragmenstein', 'butcher: oxyanion', 'select (HA) [batch3_oxyanion]', 'raw']

>  <ref_pdb>  (134) 
cx0300a

>  <alias>  (134) 
cx0540a-cx0824a

>  <submitter_name>  (134) 
None

>  <HIPPO ID>  (134) 
1541

>  <original ID>  (134) 
cx0540a-cx0824a

>  <method>  (134) 
None

>  <ref_url>  (134) 
None

>  <submitter_email>  (134) 
None

>  <original SMILES>  (134) 
CC(C)(C(=O)c1cc2cc(F)ccc2cc1F)c1ccncc1

$$$$
cx0540a-cx1118a
     RDKit          3D

 21 22  0  0  0  0  0  0  0  0999 V2000
   17.4926    1.8876   16.0134 N   0  0  0  0  0  0  0  0  0  0  0  0
   16.7667    3.1274   15.7416 C   0  0  0  0  0  0  0  0  0  0  0  0
   15.6322    0.9644   16.9800 O   0  0  0  0  0  0  0  0  0  0  0  0
   18.8665    1.8056   15.5371 C   0  0  0  0  0  0  0  0  0  0  0  0
   16.8246    0.8679   16.6833 C   0  0  0  0  0  0  0  0  0  0  0  0
   17.6569   -0.3500   17.0970 C   0  0  0  0  0  0  0  0  0  0  0  0
   20.2462   -4.6585   17.9704 F   0  0  0  0  0  0  0  0  0  0  0  0
   16.8469   -1.2785   17.8045 O   0  0  0  0  0  0  0  0  0  0  0  0
   17.5105   -2.3258   18.3732 C   0  0  0  0  0  0  0  0  0  0  0  0
   18.6669   -2.9141   17.8707 C   0  0  0  0  0  0  0  0  0  0  0  0
   19.1864   -4.0397   18.5054 C   0  0  0  0  0  0  0  0  0  0  0  0
   18.5959   -4.5693   19.6452 C   0  0  0  0  0  0  0  0  0  0  0  0
   17.4532   -3.9672   20.1579 C   0  0  0  0  0  0  0  0  0  0  0  0
   16.9086   -2.8552   19.5146 C   0  0  0  0  0  0  0  0  0  0  0  0
   18.4248    4.0677   11.4596 O   0  0  0  0  0  0  0  0  0  0  0  0
   17.5909    3.6320   13.4892 N   0  0  0  0  0  0  0  0  0  0  0  0
   16.5138    3.4087   14.2815 C   0  0  0  0  0  0  0  0  0  0  0  0
   15.2071    3.5236   13.8120 C   0  0  0  0  0  0  0  0  0  0  0  0
   14.9917    3.8995   12.4881 C   0  0  0  0  0  0  0  0  0  0  0  0
   16.0775    4.1200   11.6633 C   0  0  0  0  0  0  0  0  0  0  0  0
   17.3221    3.9581   12.2196 C   0  0  0  0  0  0  0  0  0  0  0  0
  2  1  1  0
  4  1  1  0
  5  3  2  0
  5  1  1  0
  6  5  1  0
  8  6  1  0
  9 14  1  0
  9 10  2  0
  9  8  1  0
 10 11  1  0
 11 12  2  0
 11  7  1  0
 12 13  1  0
 13 14  2  0
 16 21  2  0
 16 17  1  0
 17 18  2  0
 18 19  1  0
 19 20  2  0
 20 21  1  0
 21 15  1  0
  2 17  1  0
M  END
>  <generation_date>  (135) 
None

>  <inchikey>  (135) 
MNLAWAQYKQVGLK-UHFFFAOYSA-N

>  <ref_mols>  (135) 
cx1118a,cx0540a

>  <tags>  (135) 
['select (DF) [batch3_oxyanion]', 'pure_merges', 'fragmenstein', 'butcher: oxyanion', 'select (HA) [batch3_oxyanion]', 'raw']

>  <ref_pdb>  (135) 
cx0300a

>  <alias>  (135) 
cx0540a-cx1118a

>  <submitter_name>  (135) 
None

>  <HIPPO ID>  (135) 
1544

>  <original ID>  (135) 
cx0540a-cx1118a

>  <method>  (135) 
None

>  <ref_url>  (135) 
None

>  <submitter_email>  (135) 
None

>  <original SMILES>  (135) 
CN(Cc1cccc(O)n1)C(=O)COc1cccc(F)c1

$$$$
cx0540a-cx1135a
     RDKit          3D

 19 20  0  0  0  0  0  0  0  0999 V2000
   17.5511    2.0004   15.7123 N   0  0  0  0  0  0  0  0  0  0  0  0
   15.6997    1.2728   16.8540 O   0  0  0  0  0  0  0  0  0  0  0  0
   18.9445    1.8409   15.3126 C   0  0  0  0  0  0  0  0  0  0  0  0
   16.8721    1.0837   16.5251 C   0  0  0  0  0  0  0  0  0  0  0  0
   17.6616   -0.1402   17.0286 C   0  0  0  0  0  0  0  0  0  0  0  0
   20.1198   -4.5316   17.9061 F   0  0  0  0  0  0  0  0  0  0  0  0
   16.8463   -1.0078   17.8057 O   0  0  0  0  0  0  0  0  0  0  0  0
   17.4697   -2.0983   18.3448 C   0  0  0  0  0  0  0  0  0  0  0  0
   18.5961   -2.7326   17.8259 C   0  0  0  0  0  0  0  0  0  0  0  0
   19.0856   -3.8786   18.4521 C   0  0  0  0  0  0  0  0  0  0  0  0
   18.4909   -4.3912   19.5964 C   0  0  0  0  0  0  0  0  0  0  0  0
   17.3756   -3.7508   20.1220 C   0  0  0  0  0  0  0  0  0  0  0  0
   16.8613   -2.6166   19.4895 C   0  0  0  0  0  0  0  0  0  0  0  0
   18.4273    4.9275   12.7237 O   0  0  0  0  0  0  0  0  0  0  0  0
   17.7038    4.2425   14.8047 N   0  0  0  0  0  0  0  0  0  0  0  0
   17.6696    4.2878   13.4290 C   0  0  0  0  0  0  0  0  0  0  0  0
   16.6244    3.3255   12.9670 C   0  0  0  0  0  0  0  0  0  0  0  0
   15.8180    3.0478   14.2248 C   0  0  0  0  0  0  0  0  0  0  0  0
   16.8423    3.2299   15.3468 C   0  0  1  0  0  0  0  0  0  0  0  0
  3  1  1  0
  4  2  2  0
  4  1  1  0
  5  4  1  0
  7  5  1  0
  8 13  1  0
  8  9  2  0
  8  7  1  0
  9 10  1  0
 10 11  2  0
 10  6  1  0
 11 12  1  0
 12 13  2  0
 15 16  1  0
 16 14  2  0
 16 17  1  0
 17 18  1  0
 19 15  1  0
 19  1  1  6
 19 18  1  0
M  END
>  <generation_date>  (136) 
None

>  <inchikey>  (136) 
KQMKMHSJGVULPF-LLVKDONJSA-N

>  <ref_mols>  (136) 
cx0540a,cx1135a

>  <tags>  (136) 
['pure_merges', 'fragmenstein', 'butcher: oxyanion', 'select (HA) [batch3_oxyanion]', 'raw']

>  <ref_pdb>  (136) 
cx0300a

>  <alias>  (136) 
cx0540a-cx1135a

>  <submitter_name>  (136) 
None

>  <HIPPO ID>  (136) 
1546

>  <original ID>  (136) 
cx0540a-cx1135a

>  <method>  (136) 
None

>  <ref_url>  (136) 
None

>  <submitter_email>  (136) 
None

>  <original SMILES>  (136) 
CN(C(=O)COc1cccc(F)c1)[C@@H]1CCC(=O)N1

$$$$
cx0540a-cx1091a
     RDKit          3D

 24 25  0  0  0  0  0  0  0  0999 V2000
   17.6211    2.2838   16.0046 C   0  0  0  0  0  0  0  0  0  0  0  0
   17.3187    3.3894   17.0326 C   0  0  0  0  0  0  0  0  0  0  0  0
   15.6781    0.9796   16.6795 O   0  0  0  0  0  0  0  0  0  0  0  0
   19.1539    2.0965   15.9872 C   0  0  0  0  0  0  0  0  0  0  0  0
   16.9039    1.0012   16.5324 C   0  0  0  0  0  0  0  0  0  0  0  0
   17.7526   -0.1885   16.9907 C   0  0  0  0  0  0  0  0  0  0  0  0
   20.2684   -4.5697   17.9889 F   0  0  0  0  0  0  0  0  0  0  0  0
   16.8935   -1.2233   17.4637 O   0  0  0  0  0  0  0  0  0  0  0  0
   18.1288    3.9501   11.4559 O   0  0  0  0  0  0  0  0  0  0  0  0
   15.3212    3.8952   10.9440 C   0  0  0  0  0  0  0  0  0  0  0  0
   14.4709    5.1531   10.8197 C   0  0  0  0  0  0  0  0  0  0  0  0
   13.9088    5.2504    9.5174 O   0  0  0  0  0  0  0  0  0  0  0  0
   17.5237   -2.2203   18.1493 C   0  0  0  0  0  0  0  0  0  0  0  0
   18.7001   -2.8310   17.7275 C   0  0  0  0  0  0  0  0  0  0  0  0
   19.1920   -3.9180   18.4459 C   0  0  0  0  0  0  0  0  0  0  0  0
   18.5542   -4.3823   19.5896 C   0  0  0  0  0  0  0  0  0  0  0  0
   17.3875   -3.7581   20.0167 C   0  0  0  0  0  0  0  0  0  0  0  0
   16.8655   -2.6890   19.2869 C   0  0  0  0  0  0  0  0  0  0  0  0
   15.9591    3.7298   12.2520 N   0  0  0  0  0  0  0  0  0  0  0  0
   15.1691    3.5016   13.3552 C   0  0  0  0  0  0  0  0  0  0  0  0
   15.6767    3.0644   14.5093 C   0  0  0  0  0  0  0  0  0  0  0  0
   17.0939    2.7870   14.6521 C   0  0  0  0  0  0  0  0  0  0  0  0
   17.8791    3.0864   13.6016 C   0  0  0  0  0  0  0  0  0  0  0  0
   17.3377    3.6412   12.3368 C   0  0  0  0  0  0  0  0  0  0  0  0
  2  1  1  0
  4  1  1  0
  5  3  2  0
  5  1  1  0
  6  5  1  0
  8  6  1  0
 11 10  1  0
 12 11  1  0
 13 18  1  0
 13 14  2  0
 13  8  1  0
 14 15  1  0
 15 16  2  0
 15  7  1  0
 16 17  1  0
 17 18  2  0
 19 24  1  0
 19 10  1  0
 19 20  1  0
 20 21  2  0
 21 22  1  0
 22 23  2  0
 23 24  1  0
 24  9  2  0
  1 22  1  0
M  END
>  <generation_date>  (137) 
None

>  <inchikey>  (137) 
CNCNOCGXDJIOKP-UHFFFAOYSA-N

>  <ref_mols>  (137) 
cx0540a,cx1091a

>  <tags>  (137) 
['pure_merges', 'fragmenstein', 'butcher: oxyanion', 'select (HA) [batch3_oxyanion]', 'raw']

>  <ref_pdb>  (137) 
cx0300a

>  <alias>  (137) 
cx0540a-cx1091a

>  <submitter_name>  (137) 
None

>  <HIPPO ID>  (137) 
1555

>  <original ID>  (137) 
cx0540a-cx1091a

>  <method>  (137) 
None

>  <ref_url>  (137) 
None

>  <submitter_email>  (137) 
None

>  <original SMILES>  (137) 
CC(C)(C(=O)COc1cccc(F)c1)c1ccn(CCO)c(=O)c1

$$$$
cx0353a-cx1298a
     RDKit          3D

 16 18  0  0  0  0  0  0  0  0999 V2000
   14.9221    9.7483   10.7476 N   0  0  0  0  0  0  0  0  0  0  0  0
   14.8215   10.3033    9.4269 C   0  0  0  0  0  0  0  0  0  0  0  0
   15.8028    5.3497   13.2140 C   0  0  0  0  0  0  0  0  0  0  0  0
   14.7688   10.6626   11.8144 C   0  0  0  0  0  0  0  0  0  0  0  0
   14.4965   11.9564   11.5712 N   0  0  0  0  0  0  0  0  0  0  0  0
   14.3691   12.7714   12.6387 C   0  0  0  0  0  0  0  0  0  0  0  0
   14.5409   12.4034   13.9618 C   0  0  0  0  0  0  0  0  0  0  0  0
   14.8338   11.0792   14.2533 C   0  0  0  0  0  0  0  0  0  0  0  0
   14.8960   10.1794   13.1457 C   0  0  0  0  0  0  0  0  0  0  0  0
   15.0555   10.6676   15.6203 C   0  0  0  0  0  0  0  0  0  0  0  0
   15.3217    9.3419   16.0405 C   0  0  0  0  0  0  0  0  0  0  0  0
   15.3248    8.4790   14.9560 C   0  0  0  0  0  0  0  0  0  0  0  0
   15.1108    8.8530   13.6023 C   0  0  0  0  0  0  0  0  0  0  0  0
   15.5179    6.6795   13.6943 N   0  0  0  0  0  0  0  0  0  0  0  0
   15.5795    7.1285   14.9913 C   0  0  0  0  0  0  0  0  0  0  0  0
   15.1728    7.7034   12.8543 C   0  0  0  0  0  0  0  0  0  0  0  0
  2  1  1  0
  4  1  1  0
  4  9  2  0
  4  5  1  0
  5  6  2  0
  6  7  1  0
  7  8  2  0
  8 10  1  0
  8  9  1  0
  9 13  1  0
 10 11  2  0
 11 12  1  0
 12 13  1  0
 14  3  1  0
 14 15  1  0
 14 16  1  0
 12 15  2  0
 13 16  2  0
M  END
>  <generation_date>  (138) 
None

>  <inchikey>  (138) 
MSMSBXYBPXPEDC-UHFFFAOYSA-N

>  <ref_mols>  (138) 
cx1298a,cx0353a

>  <tags>  (138) 
['butcher: adenine', 'select (DF) [batch4_others]', 'pure_merges', 'fragmenstein', 'select (HA) [batch4_others]', 'butcher: oxyanion', 'raw']

>  <ref_pdb>  (138) 
cx0300a

>  <alias>  (138) 
cx0353a-cx1298a

>  <submitter_name>  (138) 
None

>  <HIPPO ID>  (138) 
1563

>  <original ID>  (138) 
cx0353a-cx1298a

>  <method>  (138) 
None

>  <ref_url>  (138) 
None

>  <submitter_email>  (138) 
None

>  <original SMILES>  (138) 
CNc1nccc2ccc3cn(C)cc3c12

$$$$
cx0353a-cx1440a
     RDKit          3D

 13 15  0  0  0  0  0  0  0  0999 V2000
   14.8757    9.8995   11.7955 C   0  0  0  0  0  0  0  0  0  0  0  0
   14.6796   11.0801   11.0883 N   0  0  0  0  0  0  0  0  0  0  0  0
   14.3809   12.2690   11.7404 C   0  0  0  0  0  0  0  0  0  0  0  0
   14.4061   12.3922   13.0771 C   0  0  0  0  0  0  0  0  0  0  0  0
   14.7773   11.2170   13.8870 C   0  0  0  0  0  0  0  0  0  0  0  0
   14.9508    9.9592   13.2588 C   0  0  0  0  0  0  0  0  0  0  0  0
   14.9341   11.3246   15.2690 C   0  0  0  0  0  0  0  0  0  0  0  0
   15.2316   10.1895   16.0255 C   0  0  0  0  0  0  0  0  0  0  0  0
   15.3605    8.9444   15.4099 C   0  0  0  0  0  0  0  0  0  0  0  0
   15.2192    8.8261   14.0289 C   0  0  0  0  0  0  0  0  0  0  0  0
   14.7511   10.8582    9.7555 N   0  0  0  0  0  0  0  0  0  0  0  0
   14.7738    9.5362    9.6294 C   0  0  0  0  0  0  0  0  0  0  0  0
   14.8609    8.8802   10.8616 C   0  0  0  0  0  0  0  0  0  0  0  0
  1  6  1  0
  1  2  1  0
  2  3  1  0
  3  4  2  0
  4  5  1  0
  5  7  2  0
  5  6  1  0
  6 10  2  0
  7  8  1  0
  8  9  2  0
  9 10  1  0
 11 12  2  0
 12 13  1  0
  2 11  1  0
 13  1  2  0
M  END
>  <generation_date>  (139) 
None

>  <inchikey>  (139) 
VXHPZUDEECSUNB-UHFFFAOYSA-N

>  <ref_mols>  (139) 
cx1440a,cx0353a

>  <tags>  (139) 
['butcher: adenine', 'pure_merges', 'fragmenstein', 'select (JA) [batch1_adenine]', 'raw']

>  <ref_pdb>  (139) 
cx0300a

>  <alias>  (139) 
cx0353a-cx1440a

>  <submitter_name>  (139) 
None

>  <HIPPO ID>  (139) 
1570

>  <original ID>  (139) 
cx0353a-cx1440a

>  <method>  (139) 
None

>  <ref_url>  (139) 
None

>  <submitter_email>  (139) 
None

>  <original SMILES>  (139) 
c1ccc2c(c1)ccn1nccc21

$$$$
cx0353a-cx0406a
     RDKit          3D

 22 25  0  0  0  0  0  0  0  0999 V2000
   11.0418    6.4964   13.3759 O   0  0  0  0  0  0  0  0  0  0  0  0
   11.5129    5.5150   12.4600 C   0  0  0  0  0  0  0  0  0  0  0  0
   13.9901    7.1035   11.2002 N   0  0  0  0  0  0  0  0  0  0  0  0
   14.8562   10.5405   12.2543 C   0  0  2  0  0  0  0  0  0  0  0  0
   13.8102   11.5179   12.1116 N   0  0  0  0  0  0  0  0  0  0  0  0
   14.2246   12.8785   12.3778 C   0  0  0  0  0  0  0  0  0  0  0  0
   14.5066   13.0886   13.8425 C   0  0  0  0  0  0  0  0  0  0  0  0
   15.2579   11.9248   14.4198 C   0  0  0  0  0  0  0  0  0  0  0  0
   15.4927   10.7502   13.6648 C   0  0  0  0  0  0  0  0  0  0  0  0
   15.6060   12.0067   15.7813 C   0  0  0  0  0  0  0  0  0  0  0  0
   16.1601   10.9208   16.4443 C   0  0  0  0  0  0  0  0  0  0  0  0
   16.3810    9.7448   15.7550 C   0  0  0  0  0  0  0  0  0  0  0  0
   16.0477    9.6692   14.4040 C   0  0  0  0  0  0  0  0  0  0  0  0
   15.4135   10.6040   10.9186 N   0  0  0  0  0  0  0  0  0  0  0  0
   14.3684    9.1932   12.2862 N   0  0  0  0  0  0  0  0  0  0  0  0
   14.8080    8.2887   11.2743 C   0  0  2  0  0  0  0  0  0  0  0  0
   14.9796    9.3629    9.8510 S   0  0  0  0  0  0  0  0  0  0  0  0
   15.2315    5.9496   13.0569 C   0  0  0  0  0  0  0  0  0  0  0  0
   13.8906    6.4774   12.5223 C   0  0  2  0  0  0  0  0  0  0  0  0
   13.0037    5.2470   12.6623 C   0  0  1  0  0  0  0  0  0  0  0  0
   13.3734    4.8385   14.1022 C   0  0  0  0  0  0  0  0  0  0  0  0
   14.8405    5.1964   14.3116 C   0  0  0  0  0  0  0  0  0  0  0  0
  2  1  1  0
  4  9  1  0
  4  5  1  6
  5  6  1  0
  6  7  1  0
  7  8  1  0
  8 10  2  0
  8  9  1  0
  9 13  2  0
 10 11  1  0
 11 12  2  0
 12 13  1  0
 14 17  1  0
 15 16  1  0
 16  3  1  6
 16 17  1  0
 18 19  1  0
 18 22  1  0
 19 20  1  0
 19  3  1  6
 20 21  1  0
 20  2  1  1
 21 22  1  0
  4 14  1  0
  4 15  1  0
M  END
>  <generation_date>  (140) 
None

>  <inchikey>  (140) 
UDYCJHCLGLVBPC-XZDPQHSOSA-N

>  <ref_mols>  (140) 
cx0353a,cx0406a

>  <tags>  (140) 
['butcher: adenine', 'select (DF) [batch4_others]', 'pure_merges', 'butcher: phosphate', 'fragmenstein', 'butcher: oxyanion', 'raw']

>  <ref_pdb>  (140) 
cx0300a

>  <alias>  (140) 
cx0353a-cx0406a

>  <submitter_name>  (140) 
None

>  <HIPPO ID>  (140) 
1580

>  <original ID>  (140) 
cx0353a-cx0406a

>  <method>  (140) 
None

>  <ref_url>  (140) 
None

>  <submitter_email>  (140) 
None

>  <original SMILES>  (140) 
OC[C@@H]1CCC[C@H]1N[C@@H]1N[C@]2(NCCc3ccccc32)NS1

$$$$
cx0353a-cx0316a
     RDKit          3D

 25 28  0  0  0  0  0  0  0  0999 V2000
   14.8926    9.0265   10.7577 N   0  0  0  0  0  0  0  0  0  0  0  0
   14.6860    9.6082    9.4237 C   0  0  0  0  0  0  0  0  0  0  0  0
   18.0164    4.0453   11.6687 O   0  0  0  0  0  0  0  0  0  0  0  0
   15.2400    4.1615   11.2076 C   0  0  0  0  0  0  0  0  0  0  0  0
   14.8221   10.0305   11.7754 C   0  0  0  0  0  0  0  0  0  0  0  0
   14.5540   11.2838   11.3101 N   0  0  0  0  0  0  0  0  0  0  0  0
   14.3271   12.2977   12.1546 C   0  0  0  0  0  0  0  0  0  0  0  0
   14.4594   12.2048   13.5102 C   0  0  0  0  0  0  0  0  0  0  0  0
   14.8111   10.9734   14.0357 C   0  0  0  0  0  0  0  0  0  0  0  0
   14.9630    9.8324   13.1910 C   0  0  0  0  0  0  0  0  0  0  0  0
   14.9942   10.8926   15.4231 C   0  0  0  0  0  0  0  0  0  0  0  0
   15.2980    9.6843   16.0336 C   0  0  0  0  0  0  0  0  0  0  0  0
   15.4240    8.5472   15.2566 C   0  0  0  0  0  0  0  0  0  0  0  0
   15.2607    8.6229   13.8696 C   0  0  0  0  0  0  0  0  0  0  0  0
   15.3888    6.7107   11.3753 N   0  0  0  0  0  0  0  0  0  0  0  0
   14.6655    7.6800   10.8423 C   0  0  0  0  0  0  0  0  0  0  0  0
   13.6389    7.1633   10.0778 O   0  0  0  0  0  0  0  0  0  0  0  0
   13.6991    5.7782   10.1639 N   0  0  0  0  0  0  0  0  0  0  0  0
   14.7523    5.5551   10.9565 C   0  0  0  0  0  0  0  0  0  0  0  0
   15.0544    3.8730   13.6462 C   0  0  0  0  0  0  0  0  0  0  0  0
   15.8583    3.9971   12.5269 N   0  0  0  0  0  0  0  0  0  0  0  0
   17.2416    3.8886   12.6049 C   0  0  0  0  0  0  0  0  0  0  0  0
   17.7971    3.5272   13.9362 C   0  0  0  0  0  0  0  0  0  0  0  0
   16.9875    3.3780   14.9895 C   0  0  0  0  0  0  0  0  0  0  0  0
   15.5727    3.5808   14.8442 C   0  0  0  0  0  0  0  0  0  0  0  0
  2  1  1  0
  5  1  1  0
  5 10  1  0
  5  6  2  0
  6  7  1  0
  7  8  2  0
  8  9  1  0
  9 11  1  0
  9 10  2  0
 10 14  1  0
 11 12  2  0
 12 13  1  0
 13 14  2  0
 15 16  2  0
 15 19  1  0
 16 17  1  0
 17 18  1  0
 18 19  2  0
 19  4  1  0
 20 25  2  0
 20 21  1  0
 21  4  1  0
 21 22  1  0
 22 23  1  0
 22  3  2  0
 23 24  2  0
 24 25  1  0
  1 16  1  0
M  END
>  <generation_date>  (141) 
None

>  <inchikey>  (141) 
OYAFCPFGSBONSE-UHFFFAOYSA-N

>  <ref_mols>  (141) 
cx0353a,cx0316a

>  <tags>  (141) 
['butcher: adenine', 'select (DF) [batch4_others]', 'pure_merges', 'fragmenstein', 'butcher: oxyanion', 'raw']

>  <ref_pdb>  (141) 
cx0300a

>  <alias>  (141) 
cx0353a-cx0316a

>  <submitter_name>  (141) 
None

>  <HIPPO ID>  (141) 
1584

>  <original ID>  (141) 
cx0353a-cx0316a

>  <method>  (141) 
None

>  <ref_url>  (141) 
None

>  <submitter_email>  (141) 
None

>  <original SMILES>  (141) 
CN(c1nc(Cn2ccccc2=O)no1)c1nccc2ccccc12

$$$$
cx0969a-cx1075a
     RDKit          3D

 12 13  0  0  0  0  0  0  0  0999 V2000
   15.0689   11.1020   15.1756 C   0  0  0  0  0  0  0  0  0  0  0  0
   16.4619   11.1873   15.4414 O   0  0  0  0  0  0  0  0  0  0  0  0
   14.3621    7.0890   11.2502 Br  0  0  0  0  0  0  0  0  0  0  0  0
   14.8502   11.0516   13.6905 C   0  0  0  0  0  0  0  0  0  0  0  0
   15.0628    9.8552   12.9855 C   0  0  0  0  0  0  0  0  0  0  0  0
   14.9208    9.8399   11.5984 C   0  0  0  0  0  0  0  0  0  0  0  0
   14.5891   10.9986   10.9281 C   0  0  0  0  0  0  0  0  0  0  0  0
   14.3121   12.1669   11.5963 C   0  0  0  0  0  0  0  0  0  0  0  0
   14.4506   12.2011   12.9848 C   0  0  0  0  0  0  0  0  0  0  0  0
   14.2999    9.3933    9.4279 C   0  0  0  0  0  0  0  0  0  0  0  0
   15.0385    8.7561   10.5867 C   0  0  2  0  0  0  0  0  0  0  0  0
   14.4246   10.8263    9.5792 O   0  0  0  0  0  0  0  0  0  0  0  0
  2  1  1  0
  4  1  1  0
  4  9  2  0
  4  5  1  0
  5  6  2  0
  6 11  1  0
  6  7  1  0
  7  8  2  0
  7 12  1  0
  8  9  1  0
 10 11  1  0
 10 12  1  0
 11  3  1  1
M  END
>  <generation_date>  (142) 
None

>  <inchikey>  (142) 
UIWGAWISTYKLEL-QMMMGPOBSA-N

>  <ref_mols>  (142) 
cx0969a,cx1075a

>  <tags>  (142) 
['butcher: adenine', 'pure_merges', 'fragmenstein', 'select (HA) [batch1_adenine]', 'raw']

>  <ref_pdb>  (142) 
cx0300a

>  <alias>  (142) 
cx0969a-cx1075a

>  <submitter_name>  (142) 
None

>  <HIPPO ID>  (142) 
1600

>  <original ID>  (142) 
cx0969a-cx1075a

>  <method>  (142) 
None

>  <ref_url>  (142) 
None

>  <submitter_email>  (142) 
None

>  <original SMILES>  (142) 
OCc1ccc2c(c1)[C@@H](Br)CO2

$$$$
cx0969a-cx1076a
     RDKit          3D

 12 13  0  0  0  0  0  0  0  0999 V2000
   15.0664   11.1343   15.3460 C   0  0  0  0  0  0  0  0  0  0  0  0
   16.4613   11.2460   15.5956 O   0  0  0  0  0  0  0  0  0  0  0  0
   15.1036    8.0957   14.2054 Br  0  0  0  0  0  0  0  0  0  0  0  0
   14.8525   10.9589   13.8681 C   0  0  0  0  0  0  0  0  0  0  0  0
   14.9390    9.7093   13.2202 C   0  0  0  0  0  0  0  0  0  0  0  0
   14.8692    9.6544   11.8282 C   0  0  0  0  0  0  0  0  0  0  0  0
   14.7227   10.8202   11.0976 C   0  0  0  0  0  0  0  0  0  0  0  0
   14.5426   12.0404   11.7019 C   0  0  0  0  0  0  0  0  0  0  0  0
   14.6106   12.1133   13.0913 C   0  0  0  0  0  0  0  0  0  0  0  0
   14.9548    9.2461    9.5537 C   0  0  0  0  0  0  0  0  0  0  0  0
   14.8147    8.5044   10.8830 C   0  0  0  0  0  0  0  0  0  0  0  0
   14.6759   10.6434    9.7426 O   0  0  0  0  0  0  0  0  0  0  0  0
  2  1  1  0
  4  1  1  0
  4  9  2  0
  4  5  1  0
  5  6  2  0
  6 11  1  0
  6  7  1  0
  7  8  2  0
  7 12  1  0
  8  9  1  0
 10 11  1  0
 10 12  1  0
  3  5  1  0
M  END
>  <generation_date>  (143) 
None

>  <inchikey>  (143) 
UAAVSWKIYQTYMM-UHFFFAOYSA-N

>  <ref_mols>  (143) 
cx0969a,cx1076a

>  <tags>  (143) 
['butcher: adenine', 'pure_merges', 'fragmenstein', 'select (HA) [batch1_adenine]', 'raw']

>  <ref_pdb>  (143) 
cx0300a

>  <alias>  (143) 
cx0969a-cx1076a

>  <submitter_name>  (143) 
None

>  <HIPPO ID>  (143) 
1602

>  <original ID>  (143) 
cx0969a-cx1076a

>  <method>  (143) 
None

>  <ref_url>  (143) 
None

>  <submitter_email>  (143) 
None

>  <original SMILES>  (143) 
OCc1ccc2c(c1Br)CCO2

$$$$
cx0969a-cx1316a
     RDKit          3D

 13 14  0  0  0  0  0  0  0  0999 V2000
   15.2977   10.1177   15.4592 C   0  0  0  0  0  0  0  0  0  0  0  0
   16.0105   11.1411   16.1523 O   0  0  0  0  0  0  0  0  0  0  0  0
   14.3943    7.8316   10.3687 C   0  0  0  0  0  0  0  0  0  0  0  0
   14.7335   12.8609   14.6684 O   0  0  0  0  0  0  0  0  0  0  0  0
   15.0229   10.5427   14.0445 C   0  0  0  0  0  0  0  0  0  0  0  0
   15.0495    9.5712   13.0237 C   0  0  0  0  0  0  0  0  0  0  0  0
   14.8983    9.9670   11.6997 C   0  0  0  0  0  0  0  0  0  0  0  0
   14.6265   11.2919   11.4058 C   0  0  0  0  0  0  0  0  0  0  0  0
   14.4954   12.2544   12.3882 C   0  0  0  0  0  0  0  0  0  0  0  0
   14.7302   11.8778   13.7079 C   0  0  0  0  0  0  0  0  0  0  0  0
   14.4189   10.2168    9.4586 C   0  0  0  0  0  0  0  0  0  0  0  0
   15.0213    9.2049   10.4194 C   0  0  2  0  0  0  0  0  0  0  0  0
   14.4937   11.5248   10.0654 O   0  0  0  0  0  0  0  0  0  0  0  0
  2  1  1  0
  5  1  1  0
  5 10  2  0
  5  6  1  0
  6  7  2  0
  7 12  1  0
  7  8  1  0
  8  9  2  0
  8 13  1  0
  9 10  1  0
 11 12  1  0
 11 13  1  0
 12  3  1  1
  4 10  1  0
M  END
>  <generation_date>  (144) 
None

>  <inchikey>  (144) 
VXRYAOWDXSGLEE-LURJTMIESA-N

>  <ref_mols>  (144) 
cx0969a,cx1316a

>  <tags>  (144) 
['butcher: adenine', 'pure_merges', 'fragmenstein', 'select (HA) [batch1_adenine]', 'raw']

>  <ref_pdb>  (144) 
cx0300a

>  <alias>  (144) 
cx0969a-cx1316a

>  <submitter_name>  (144) 
None

>  <HIPPO ID>  (144) 
1608

>  <original ID>  (144) 
cx0969a-cx1316a

>  <method>  (144) 
None

>  <ref_url>  (144) 
None

>  <submitter_email>  (144) 
None

>  <original SMILES>  (144) 
C[C@H]1COc2cc(O)c(CO)cc21

$$$$
cx0543a-cx0540a
     RDKit          3D

 24 27  0  0  0  0  0  0  0  0999 V2000
   15.1655    3.7602   12.0054 N   0  0  0  0  0  0  0  0  0  0  0  0
   16.4421    3.8608   12.4518 C   0  0  0  0  0  0  0  0  0  0  0  0
   17.2961    4.3297   11.7060 O   0  0  0  0  0  0  0  0  0  0  0  0
   17.8622    1.4748   16.8447 C   0  0  2  0  0  0  0  0  0  0  0  0
   19.3016    1.3756   16.6982 O   0  0  0  0  0  0  0  0  0  0  0  0
   15.7640    0.1865   16.1024 O   0  0  0  0  0  0  0  0  0  0  0  0
   17.1408    0.2036   16.4988 C   0  0  2  0  0  0  0  0  0  0  0  0
   19.1060   -4.5946   18.0023 F   0  0  0  0  0  0  0  0  0  0  0  0
   15.7002    2.8102   14.6133 C   0  0  0  0  0  0  0  0  0  0  0  0
   16.6786    3.4617   13.7475 N   0  0  0  0  0  0  0  0  0  0  0  0
   18.0632    3.3309   14.1981 C   0  0  0  0  0  0  0  0  0  0  0  0
   18.2207    3.6514   15.6970 C   0  0  0  0  0  0  0  0  0  0  0  0
   17.3553    2.8461   16.5980 N   0  0  0  0  0  0  0  0  0  0  0  0
   15.9695    3.0210   16.1234 C   0  0  0  0  0  0  0  0  0  0  0  0
   16.1534    0.5733   18.8189 C   0  0  0  0  0  0  0  0  0  0  0  0
   17.3542    0.5235   17.9456 C   0  0  2  0  0  0  0  0  0  0  0  0
   18.2601   -0.4423   18.5471 O   0  0  0  0  0  0  0  0  0  0  0  0
   17.4407   -1.4757   19.1618 C   0  0  1  0  0  0  0  0  0  0  0  0
   15.9903   -0.9222   19.1226 C   0  0  0  0  0  0  0  0  0  0  0  0
   17.6351   -2.7616   18.3303 C   0  0  0  0  0  0  0  0  0  0  0  0
   18.8564   -3.5370   18.8205 C   0  0  1  0  0  0  0  0  0  0  0  0
   18.6171   -4.0646   20.2302 C   0  0  0  0  0  0  0  0  0  0  0  0
   17.7834   -3.1045   21.0799 C   0  0  0  0  0  0  0  0  0  0  0  0
   17.9266   -1.6592   20.6104 C   0  0  0  0  0  0  0  0  0  0  0  0
  2  1  1  0
  3  2  2  0
  4  5  1  6
  7  6  1  1
  7  4  1  0
  9 14  1  0
  9 10  1  0
 10 11  1  0
 10  2  1  0
 11 12  1  0
 12 13  1  0
 13 14  1  0
 13  4  1  0
 16 15  1  1
 15 19  1  0
 16  4  1  0
 16 17  1  0
 18 17  1  0
 18 19  1  1
 20 21  1  0
 21 22  1  0
 21  8  1  6
 22 23  1  0
 23 24  1  0
 18 24  1  0
 18 20  1  0
  7 16  1  0
M  END
>  <generation_date>  (145) 
None

>  <inchikey>  (145) 
WQOLPHFFZSYUNT-DEDQRHPVSA-N

>  <ref_mols>  (145) 
cx0540a,cx0543a

>  <tags>  (145) 
['pure_merges', 'fragmenstein', 'butcher: oxyanion', 'select (HA) [batch3_oxyanion]', 'raw']

>  <ref_pdb>  (145) 
cx0300a

>  <alias>  (145) 
cx0543a-cx0540a

>  <submitter_name>  (145) 
None

>  <HIPPO ID>  (145) 
1627

>  <original ID>  (145) 
cx0543a-cx0540a

>  <method>  (145) 
None

>  <ref_url>  (145) 
None

>  <submitter_email>  (145) 
None

>  <original SMILES>  (145) 
NC(=O)N1CCN([C@]2(O)[C@H](O)[C@]23CC[C@]2(CCC[C@@H](F)C2)O3)CC1

$$$$
cx0543a-cx0300a
     RDKit          3D

 24 26  0  0  0  0  0  0  0  0999 V2000
   14.8609    3.7894   11.6455 N   0  0  0  0  0  0  0  0  0  0  0  0
   16.1786    3.7788   11.9504 C   0  0  0  0  0  0  0  0  0  0  0  0
   17.0019    4.0832   11.0984 O   0  0  0  0  0  0  0  0  0  0  0  0
   17.9370    1.5500   16.5274 C   0  0  0  0  0  0  0  0  0  0  0  0
   19.1492    1.3322   16.4731 O   0  0  0  0  0  0  0  0  0  0  0  0
   15.7037    5.1851   14.5559 N   0  0  0  0  0  0  0  0  0  0  0  0
   14.9811    5.9091   15.4624 C   0  0  0  0  0  0  0  0  0  0  0  0
   14.4276    5.4311   16.4448 O   0  0  0  0  0  0  0  0  0  0  0  0
   15.6182    3.7510   14.3574 C   0  0  1  0  0  0  0  0  0  0  0  0
   16.5138    3.4687   13.2441 N   0  0  0  0  0  0  0  0  0  0  0  0
   17.9487    3.3799   13.5659 C   0  0  0  0  0  0  0  0  0  0  0  0
   18.2768    3.5006   15.0611 C   0  0  0  0  0  0  0  0  0  0  0  0
   17.3928    2.6661   15.8641 N   0  0  0  0  0  0  0  0  0  0  0  0
   15.9584    2.8372   15.5801 C   0  0  0  0  0  0  0  0  0  0  0  0
   15.9548    0.9001   18.1015 C   0  0  0  0  0  0  0  0  0  0  0  0
   17.0439    0.6748   17.2751 C   0  0  0  0  0  0  0  0  0  0  0  0
   17.2948   -0.6753   17.2392 O   0  0  0  0  0  0  0  0  0  0  0  0
   16.3571   -1.2894   18.0018 C   0  0  0  0  0  0  0  0  0  0  0  0
   15.5048   -0.3652   18.5536 C   0  0  0  0  0  0  0  0  0  0  0  0
   14.5961    8.3468   15.9985 C   0  0  0  0  0  0  0  0  0  0  0  0
   14.9382    7.3363   15.1191 C   0  0  0  0  0  0  0  0  0  0  0  0
   15.2488    7.7744   13.8250 N   0  0  0  0  0  0  0  0  0  0  0  0
   15.0831    9.0771   13.7532 C   0  0  0  0  0  0  0  0  0  0  0  0
   14.6968    9.8692   15.2169 S   0  0  0  0  0  0  0  0  0  0  0  0
  2  1  1  0
  3  2  2  0
  5  4  2  0
  7  6  1  0
  8  7  2  0
  9 14  1  0
  9 10  1  0
 10 11  1  0
 10  2  1  0
 11 12  1  0
 12 13  1  0
 13 14  1  0
 13  4  1  0
 15 16  2  0
 15 19  1  0
 16  4  1  0
 16 17  1  0
 17 18  1  0
 18 19  2  0
 20 21  2  0
 20 24  1  0
 21  7  1  0
 21 22  1  0
 22 23  2  0
 23 24  1  0
  9  6  1  1
M  END
>  <generation_date>  (146) 
None

>  <inchikey>  (146) 
IBNRYRKGRKRSMK-NSHDSACASA-N

>  <ref_mols>  (146) 
cx0543a,cx0300a

>  <tags>  (146) 
['butcher: adenine', 'select (DF) [batch4_others]', 'pure_merges', 'fragmenstein', 'select (HA) [batch4_others]', 'butcher: oxyanion', 'raw']

>  <ref_pdb>  (146) 
cx0300a

>  <alias>  (146) 
cx0543a-cx0300a

>  <submitter_name>  (146) 
None

>  <HIPPO ID>  (146) 
1634

>  <original ID>  (146) 
cx0543a-cx0300a

>  <method>  (146) 
None

>  <ref_url>  (146) 
None

>  <submitter_email>  (146) 
None

>  <original SMILES>  (146) 
NC(=O)N1CCN(C(=O)c2ccco2)C[C@H]1NC(=O)c1cscn1

$$$$
cx0543a-cx0316a
     RDKit          3D

 23 25  0  0  0  0  0  0  0  0999 V2000
   15.0609    4.0166   11.8541 N   0  0  0  0  0  0  0  0  0  0  0  0
   16.3814    3.9305   12.2025 C   0  0  0  0  0  0  0  0  0  0  0  0
   17.2905    4.4484   11.5589 O   0  0  0  0  0  0  0  0  0  0  0  0
   18.0630    1.3314   16.7572 C   0  0  0  0  0  0  0  0  0  0  0  0
   19.2917    1.2564   16.7453 O   0  0  0  0  0  0  0  0  0  0  0  0
   13.7775    9.0099    8.9846 C   0  0  0  0  0  0  0  0  0  0  0  0
   14.6228    8.4901   10.1264 C   0  0  0  0  0  0  0  0  0  0  0  0
   15.6165    3.0748   14.4141 C   0  0  0  0  0  0  0  0  0  0  0  0
   16.6380    3.2275   13.3788 N   0  0  0  0  0  0  0  0  0  0  0  0
   18.0379    3.1364   13.8211 C   0  0  0  0  0  0  0  0  0  0  0  0
   18.1937    3.3395   15.3290 C   0  0  0  0  0  0  0  0  0  0  0  0
   17.3980    2.3599   16.0642 N   0  0  0  0  0  0  0  0  0  0  0  0
   16.0265    2.1768   15.5878 C   0  0  0  0  0  0  0  0  0  0  0  0
   16.1411    0.5657   18.3319 C   0  0  0  0  0  0  0  0  0  0  0  0
   17.2335    0.3923   17.4974 C   0  0  0  0  0  0  0  0  0  0  0  0
   17.5292   -0.9431   17.4221 O   0  0  0  0  0  0  0  0  0  0  0  0
   16.6134   -1.6041   18.1741 C   0  0  0  0  0  0  0  0  0  0  0  0
   15.7329   -0.7218   18.7515 C   0  0  0  0  0  0  0  0  0  0  0  0
   15.2002    6.3166   11.2197 N   0  0  0  0  0  0  0  0  0  0  0  0
   14.4002    7.0791   10.5133 C   0  0  0  0  0  0  0  0  0  0  0  0
   13.3126    6.4136   10.0342 O   0  0  0  0  0  0  0  0  0  0  0  0
   13.4263    5.0991   10.4937 N   0  0  0  0  0  0  0  0  0  0  0  0
   14.5824    5.0967   11.1606 C   0  0  0  0  0  0  0  0  0  0  0  0
  2  1  1  0
  3  2  2  0
  5  4  2  0
  7  6  1  0
  8 13  1  0
  8  9  1  0
  9 10  1  0
  9  2  1  0
 10 11  1  0
 11 12  1  0
 12 13  1  0
 12  4  1  0
 14 15  2  0
 14 18  1  0
 15  4  1  0
 15 16  1  0
 16 17  1  0
 17 18  2  0
 19 20  2  0
 19 23  1  0
 20  7  1  0
 20 21  1  0
 21 22  1  0
 22 23  2  0
  1 23  1  0
M  END
>  <generation_date>  (147) 
None

>  <inchikey>  (147) 
XNVDJLXZBJHKFV-UHFFFAOYSA-N

>  <ref_mols>  (147) 
cx0543a,cx0316a

>  <tags>  (147) 
['butcher: adenine', 'select (DF) [batch4_others]', 'pure_merges', 'fragmenstein', 'butcher: oxyanion', 'raw']

>  <ref_pdb>  (147) 
cx0300a

>  <alias>  (147) 
cx0543a-cx0316a

>  <submitter_name>  (147) 
None

>  <HIPPO ID>  (147) 
1642

>  <original ID>  (147) 
cx0543a-cx0316a

>  <method>  (147) 
None

>  <ref_url>  (147) 
None

>  <submitter_email>  (147) 
None

>  <original SMILES>  (147) 
CCc1nc(NC(=O)N2CCN(C(=O)c3ccco3)CC2)no1

$$$$
cx0585a-cx0398a
     RDKit          3D

 16 17  0  0  0  0  0  0  0  0999 V2000
   15.6794    0.5271   15.7992 O   0  0  0  0  0  0  0  0  0  0  0  0
   16.2801    0.8522   16.8040 C   0  0  0  0  0  0  0  0  0  0  0  0
   15.0353   -0.3896   21.2933 F   0  0  0  0  0  0  0  0  0  0  0  0
   15.4540    3.3414   14.2048 C   0  0  0  0  0  0  0  0  0  0  0  0
   15.6868   -0.6716   20.1575 C   0  0  0  0  0  0  0  0  0  0  0  0
   15.6764    0.2507   19.1238 C   0  0  0  0  0  0  0  0  0  0  0  0
   16.3223   -0.0812   17.9351 C   0  0  0  0  0  0  0  0  0  0  0  0
   16.9461   -1.3226   17.7684 C   0  0  0  0  0  0  0  0  0  0  0  0
   16.9746   -2.2240   18.8297 C   0  0  0  0  0  0  0  0  0  0  0  0
   16.3522   -1.8897   20.0316 C   0  0  0  0  0  0  0  0  0  0  0  0
   16.2820    3.2841   16.6561 C   0  0  0  0  0  0  0  0  0  0  0  0
   16.4732    3.8628   15.2234 C   0  0  1  0  0  0  0  0  0  0  0  0
   17.8635    3.7571   14.7207 N   0  0  0  0  0  0  0  0  0  0  0  0
   18.3788    2.3907   14.9355 C   0  0  0  0  0  0  0  0  0  0  0  0
   18.3379    1.9885   16.4226 C   0  0  0  0  0  0  0  0  0  0  0  0
   16.9837    2.0358   16.9675 N   0  0  0  0  0  0  0  0  0  0  0  0
  2  1  2  0
  5 10  2  0
  5  6  1  0
  5  3  1  0
  6  7  2  0
  7  8  1  0
  7  2  1  0
  8  9  2  0
  9 10  1  0
 11 16  1  0
 11 12  1  0
 12 13  1  0
 13 14  1  0
 14 15  1  0
 15 16  1  0
 16  2  1  0
 12  4  1  6
M  END
>  <generation_date>  (148) 
None

>  <inchikey>  (148) 
GEKAQEZWMKZGCA-VIFPVBQESA-N

>  <ref_mols>  (148) 
cx0398a,cx0585a

>  <tags>  (148) 
['pure_merges', 'fragmenstein', 'butcher: oxyanion', 'select (HA) [batch3_oxyanion]', 'raw']

>  <ref_pdb>  (148) 
cx0300a

>  <alias>  (148) 
cx0585a-cx0398a

>  <submitter_name>  (148) 
None

>  <HIPPO ID>  (148) 
1646

>  <original ID>  (148) 
cx0585a-cx0398a

>  <method>  (148) 
None

>  <ref_url>  (148) 
None

>  <submitter_email>  (148) 
None

>  <original SMILES>  (148) 
C[C@H]1CN(C(=O)c2cccc(F)c2)CCN1

$$$$
cx0585a-cx1091a
     RDKit          3D

 25 27  0  0  0  0  0  0  0  0999 V2000
   15.4603   -0.1656   15.9121 O   0  0  0  0  0  0  0  0  0  0  0  0
   16.1394    0.3009   16.8072 C   0  0  0  0  0  0  0  0  0  0  0  0
   14.9784   -0.3337   21.4336 F   0  0  0  0  0  0  0  0  0  0  0  0
   18.0788    3.8400   11.5767 O   0  0  0  0  0  0  0  0  0  0  0  0
   15.3178    3.7880   11.0668 C   0  0  0  0  0  0  0  0  0  0  0  0
   14.4722    5.0006   10.6655 C   0  0  0  0  0  0  0  0  0  0  0  0
   13.9856    4.8818    9.3419 O   0  0  0  0  0  0  0  0  0  0  0  0
   18.9321    4.5559   16.4033 Br  0  0  0  0  0  0  0  0  0  0  0  0
   15.6504   -0.7337   20.3471 C   0  0  0  0  0  0  0  0  0  0  0  0
   15.5620    0.0152   19.1880 C   0  0  0  0  0  0  0  0  0  0  0  0
   16.2385   -0.4410   18.0614 C   0  0  0  0  0  0  0  0  0  0  0  0
   16.9667   -1.6345   18.0730 C   0  0  0  0  0  0  0  0  0  0  0  0
   17.0574   -2.3651   19.2529 C   0  0  0  0  0  0  0  0  0  0  0  0
   16.4070   -1.9033   20.3968 C   0  0  0  0  0  0  0  0  0  0  0  0
   16.2694    2.7389   16.9054 C   0  0  0  0  0  0  0  0  0  0  0  0
   16.3337    3.6317   15.6518 C   0  0  1  0  0  0  0  0  0  0  0  0
   17.7454    3.6553   15.0442 C   0  0  2  0  0  0  0  0  0  0  0  0
   18.3027    2.2418   14.8410 C   0  0  0  0  0  0  0  0  0  0  0  0
   18.2097    1.3854   16.1077 C   0  0  0  0  0  0  0  0  0  0  0  0
   16.9004    1.4460   16.7396 N   0  0  0  0  0  0  0  0  0  0  0  0
   15.9365    3.9608   12.3915 N   0  0  0  0  0  0  0  0  0  0  0  0
   15.0445    4.1719   13.5117 C   0  0  0  0  0  0  0  0  0  0  0  0
   15.2664    3.1892   14.6447 C   0  0  0  0  0  0  0  0  0  0  0  0
   17.8620    4.5656   13.8193 C   0  0  0  0  0  0  0  0  0  0  0  0
   17.3071    4.0657   12.5049 C   0  0  0  0  0  0  0  0  0  0  0  0
  2  1  2  0
  6  5  1  0
  7  6  1  0
  9 14  2  0
  9 10  1  0
  9  3  1  0
 10 11  2  0
 11 12  1  0
 11  2  1  0
 12 13  2  0
 13 14  1  0
 15 20  1  0
 16 15  1  1
 16 17  1  0
 17 18  1  0
 18 19  1  0
 19 20  1  0
 20  2  1  0
 21 25  1  0
 21  5  1  0
 21 22  1  0
 22 23  1  0
 24 25  1  0
 25  4  2  0
 17 24  1  0
 17  8  1  1
 16 23  1  0
M  END
>  <generation_date>  (149) 
None

>  <inchikey>  (149) 
QAHGAEAVRARJEN-KBXCAEBGSA-N

>  <ref_mols>  (149) 
cx0585a,cx1091a

>  <tags>  (149) 
['pure_merges', 'fragmenstein', 'butcher: oxyanion', 'select (JA) [batch3_oxyanion]', 'raw']

>  <ref_pdb>  (149) 
cx0300a

>  <alias>  (149) 
cx0585a-cx1091a

>  <submitter_name>  (149) 
None

>  <HIPPO ID>  (149) 
1663

>  <original ID>  (149) 
cx0585a-cx1091a

>  <method>  (149) 
None

>  <ref_url>  (149) 
None

>  <submitter_email>  (149) 
None

>  <original SMILES>  (149) 
O=C1C[C@]2(Br)CCN(C(=O)c3cccc(F)c3)C[C@@H]2CCN1CCO

$$$$
cx0585a-cx0316a
     RDKit          3D

 29 32  0  0  0  0  0  0  0  0999 V2000
   14.6089    1.6052   17.7097 O   0  0  0  0  0  0  0  0  0  0  0  0
   15.8099    1.3292   17.7035 C   0  0  0  0  0  0  0  0  0  0  0  0
   15.4942   -1.2531   21.6516 F   0  0  0  0  0  0  0  0  0  0  0  0
   13.8640    9.4148    8.9847 C   0  0  0  0  0  0  0  0  0  0  0  0
   17.5602    4.8026   11.4274 O   0  0  0  0  0  0  0  0  0  0  0  0
   14.7712    8.8929   10.0648 C   0  0  0  0  0  0  0  0  0  0  0  0
   14.5209    4.6043   12.3305 C   0  0  0  0  0  0  0  0  0  0  0  0
   15.9259   -1.1840   20.3877 C   0  0  0  0  0  0  0  0  0  0  0  0
   15.7102   -0.0212   19.6830 C   0  0  0  0  0  0  0  0  0  0  0  0
   16.1371    0.0624   18.3566 C   0  0  0  0  0  0  0  0  0  0  0  0
   16.7321   -1.0284   17.7259 C   0  0  0  0  0  0  0  0  0  0  0  0
   16.9606   -2.1940   18.4608 C   0  0  0  0  0  0  0  0  0  0  0  0
   16.5603   -2.2702   19.7967 C   0  0  0  0  0  0  0  0  0  0  0  0
   16.4721    3.6170   17.0967 C   0  0  0  0  0  0  0  0  0  0  0  0
   16.5339    3.9368   15.5954 C   0  0  1  0  0  0  0  0  0  0  0  0
   17.9304    3.5853   15.0466 C   0  0  1  0  0  0  0  0  0  0  0  0
   18.3899    2.1608   15.4509 C   0  0  0  0  0  0  0  0  0  0  0  0
   18.1818    1.8704   16.9425 C   0  0  0  0  0  0  0  0  0  0  0  0
   16.8208    2.2164   17.3371 N   0  0  0  0  0  0  0  0  0  0  0  0
   15.0435    6.8344   11.4421 N   0  0  0  0  0  0  0  0  0  0  0  0
   14.5251    7.4960   10.4384 C   0  0  0  0  0  0  0  0  0  0  0  0
   13.7257    6.7405    9.6342 O   0  0  0  0  0  0  0  0  0  0  0  0
   13.7448    5.4570   10.1615 N   0  0  0  0  0  0  0  0  0  0  0  0
   14.5027    5.5947   11.2527 C   0  0  0  0  0  0  0  0  0  0  0  0
   15.5431    2.7174   13.5451 C   0  0  0  0  0  0  0  0  0  0  0  0
   15.7759    3.7547   12.4753 C   0  0  2  0  0  0  0  0  0  0  0  0
   17.0507    4.5589   12.7325 C   0  0  1  0  0  0  0  0  0  0  0  0
   18.1399    3.8388   13.5368 C   0  0  0  0  0  0  0  0  0  0  0  0
   15.3567    3.2305   14.9397 C   0  0  0  0  0  0  0  0  0  0  0  0
  2  1  2  0
  6  4  1  0
  8 13  2  0
  8  9  1  0
  8  3  1  0
  9 10  2  0
 10 11  1  0
 10  2  1  0
 11 12  2  0
 12 13  1  0
 14 19  1  0
 15 14  1  1
 15 16  1  0
 16 17  1  6
 17 18  1  0
 18 19  1  0
 19  2  1  0
 20 21  2  0
 20 24  1  0
 21  6  1  0
 21 22  1  0
 22 23  1  0
 23 24  2  0
 24  7  1  0
 25 29  1  0
 25 26  1  0
 26  7  1  1
 26 27  1  0
 27 28  1  0
 27  5  1  6
 15 29  1  0
 16 28  1  0
M  END
>  <generation_date>  (150) 
None

>  <inchikey>  (150) 
UQIKLGQVBGVCAT-RIVXBTQJSA-N

>  <ref_mols>  (150) 
cx0585a,cx0316a

>  <tags>  (150) 
['butcher: adenine', 'select (DF) [batch4_others]', 'pure_merges', 'fragmenstein', 'butcher: oxyanion', 'raw']

>  <ref_pdb>  (150) 
cx0300a

>  <alias>  (150) 
cx0585a-cx0316a

>  <submitter_name>  (150) 
None

>  <HIPPO ID>  (150) 
1664

>  <original ID>  (150) 
cx0585a-cx0316a

>  <method>  (150) 
None

>  <ref_url>  (150) 
None

>  <submitter_email>  (150) 
None

>  <original SMILES>  (150) 
CCc1nc(C[C@@H]2CC[C@H]3CN(C(=O)c4cccc(F)c4)CC[C@H]3C[C@H]2O)no1

$$$$
cx0477a-cx1371a
     RDKit          3D

 12 12  0  0  0  0  0  0  0  0999 V2000
   14.0965   12.7403   11.4407 N   0  0  0  0  0  0  0  0  0  0  0  0
   14.6333   11.4808   11.5224 C   0  0  0  0  0  0  0  0  0  0  0  0
   14.9543   10.8967   10.4948 O   0  0  0  0  0  0  0  0  0  0  0  0
   14.5370    8.3027   15.3861 C   0  0  0  0  0  0  0  0  0  0  0  0
   15.8656    7.8893   15.9935 C   0  0  0  0  0  0  0  0  0  0  0  0
   16.7402    7.3676   14.9985 O   0  0  0  0  0  0  0  0  0  0  0  0
   14.8141    8.0916   12.2828 Cl  0  0  0  0  0  0  0  0  0  0  0  0
   14.6884   10.8913   12.8433 C   0  0  0  0  0  0  0  0  0  0  0  0
   14.6364   11.5434   14.0975 C   0  0  0  0  0  0  0  0  0  0  0  0
   14.6155   10.7003   15.1335 N   0  0  0  0  0  0  0  0  0  0  0  0
   14.6777    9.4802   14.5494 N   0  0  0  0  0  0  0  0  0  0  0  0
   14.7687    9.5546   13.1902 C   0  0  0  0  0  0  0  0  0  0  0  0
  2  1  1  0
  3  2  2  0
  5  4  1  0
  6  5  1  0
  8  2  1  0
  8  9  1  0
  8 12  2  0
  9 10  2  0
 10 11  1  0
 11 12  1  0
 11  4  1  0
  7 12  1  0
M  END
>  <generation_date>  (151) 
None

>  <inchikey>  (151) 
BVUPUESEXLTFAF-UHFFFAOYSA-N

>  <ref_mols>  (151) 
cx1371a,cx0477a

>  <tags>  (151) 
['butcher: adenine', 'pure_merges', 'fragmenstein', 'select (HA) [batch1_adenine]', 'raw']

>  <ref_pdb>  (151) 
cx0300a

>  <alias>  (151) 
cx0477a-cx1371a

>  <submitter_name>  (151) 
None

>  <HIPPO ID>  (151) 
1668

>  <original ID>  (151) 
cx0477a-cx1371a

>  <method>  (151) 
None

>  <ref_url>  (151) 
None

>  <submitter_email>  (151) 
None

>  <original SMILES>  (151) 
NC(=O)c1cnn(CCO)c1Cl

$$$$
cx0477a-cx0394a
     RDKit          3D

 15 15  0  0  0  0  0  0  0  0999 V2000
   14.2330   13.2398   12.2769 N   0  0  0  0  0  0  0  0  0  0  0  0
   14.2538   11.8712   11.7456 C   0  0  1  0  0  0  0  0  0  0  0  0
   15.0319   11.6858   10.5199 N   0  0  0  0  0  0  0  0  0  0  0  0
   14.6054    7.5972   14.4060 C   0  0  0  0  0  0  0  0  0  0  0  0
   15.6337    7.2487   15.4736 C   0  0  0  0  0  0  0  0  0  0  0  0
   16.9400    7.2009   14.9057 O   0  0  0  0  0  0  0  0  0  0  0  0
   14.4681   11.0012    9.6605 O   0  0  0  0  0  0  0  0  0  0  0  0
   14.9288    8.5550   11.4011 C   0  0  0  0  0  0  0  0  0  0  0  0
   13.7758    8.1606   10.8214 F   0  0  0  0  0  0  0  0  0  0  0  0
   15.5854    7.3856   11.6610 F   0  0  0  0  0  0  0  0  0  0  0  0
   14.5987   10.8378   12.7791 C   0  0  0  0  0  0  0  0  0  0  0  0
   14.6941   11.0593   14.1696 C   0  0  0  0  0  0  0  0  0  0  0  0
   14.7096    9.9328   14.8642 N   0  0  0  0  0  0  0  0  0  0  0  0
   14.7554    8.9604   13.9285 N   0  0  0  0  0  0  0  0  0  0  0  0
   14.7802    9.4419   12.6357 C   0  0  0  0  0  0  0  0  0  0  0  0
  2  1  1  1
  3  2  1  0
  5  4  1  0
  6  5  1  0
  7  3  2  0
  8  9  1  0
 10  8  1  0
 11  2  1  0
 11 12  1  0
 11 15  2  0
 12 13  2  0
 13 14  1  0
 14 15  1  0
 14  4  1  0
  8 15  1  0
M  END
>  <generation_date>  (152) 
None

>  <inchikey>  (152) 
BPARDJHSZTZNKH-ZETCQYMHSA-N

>  <ref_mols>  (152) 
cx0477a,cx0394a

>  <tags>  (152) 
['butcher: adenine', 'pure_merges', 'fragmenstein', 'select (HA) [batch1_adenine]', 'raw']

>  <ref_pdb>  (152) 
cx0300a

>  <alias>  (152) 
cx0477a-cx0394a

>  <submitter_name>  (152) 
None

>  <HIPPO ID>  (152) 
1680

>  <original ID>  (152) 
cx0477a-cx0394a

>  <method>  (152) 
None

>  <ref_url>  (152) 
None

>  <submitter_email>  (152) 
None

>  <original SMILES>  (152) 
N[C@@H](N=O)c1cnn(CCO)c1C(F)F

$$$$
cx0477a-cx1402a
     RDKit          3D

 13 14  0  0  0  0  0  0  0  0999 V2000
   14.4787    8.2706   15.2942 C   0  0  0  0  0  0  0  0  0  0  0  0
   15.8286    7.8802   15.8566 C   0  0  0  0  0  0  0  0  0  0  0  0
   16.6405    7.3332   14.8230 O   0  0  0  0  0  0  0  0  0  0  0  0
   14.7627   10.8485   12.6238 C   0  0  0  0  0  0  0  0  0  0  0  0
   14.6646   11.5215   13.7789 C   0  0  0  0  0  0  0  0  0  0  0  0
   14.5812   10.7186   14.9078 N   0  0  0  0  0  0  0  0  0  0  0  0
   14.6205    9.4909   14.4408 C   0  0  0  0  0  0  0  0  0  0  0  0
   14.7673    9.4636   12.9666 C   0  0  0  0  0  0  0  0  0  0  0  0
   14.8982   10.8497   10.1148 N   0  0  0  0  0  0  0  0  0  0  0  0
   14.8274   11.4160   11.2751 C   0  0  0  0  0  0  0  0  0  0  0  0
   14.7985    8.3991   12.1623 C   0  0  0  0  0  0  0  0  0  0  0  0
   14.8154    8.4453   10.7169 C   0  0  0  0  0  0  0  0  0  0  0  0
   14.8602    9.5033    9.8952 C   0  0  0  0  0  0  0  0  0  0  0  0
  2  1  1  0
  3  2  1  0
  4  5  2  0
  4  8  1  0
  5  6  1  0
  6  7  2  0
  7  8  1  0
  7  1  1  0
  9 13  1  0
  9 10  2  0
 11 12  1  0
 12 13  2  0
  4 10  1  0
  8 11  2  0
M  END
>  <generation_date>  (153) 
None

>  <inchikey>  (153) 
GKRAARLHUMXMJO-UHFFFAOYSA-N

>  <ref_mols>  (153) 
cx0477a,cx1402a

>  <tags>  (153) 
['butcher: adenine', 'pure_merges', 'fragmenstein', 'select (HA) [batch1_adenine]', 'raw']

>  <ref_pdb>  (153) 
cx0300a

>  <alias>  (153) 
cx0477a-cx1402a

>  <submitter_name>  (153) 
None

>  <HIPPO ID>  (153) 
1682

>  <original ID>  (153) 
cx0477a-cx1402a

>  <method>  (153) 
None

>  <ref_url>  (153) 
None

>  <submitter_email>  (153) 
None

>  <original SMILES>  (153) 
OCCc1ncc2cncccc1-2

$$$$
cx0477a-cx0300a
     RDKit          3D

 20 21  0  0  0  0  0  0  0  0999 V2000
   14.0293   12.8548   11.5228 N   0  0  0  0  0  0  0  0  0  0  0  0
   14.6142   11.6212   11.5790 C   0  0  0  0  0  0  0  0  0  0  0  0
   14.9228   11.0441   10.5428 O   0  0  0  0  0  0  0  0  0  0  0  0
   14.3062    8.2198   15.1340 C   0  0  0  0  0  0  0  0  0  0  0  0
   15.3319    7.0596   15.1735 C   0  0  0  0  0  0  0  0  0  0  0  0
   16.6220    7.5384   15.4267 O   0  0  0  0  0  0  0  0  0  0  0  0
   15.4319    6.2535   13.9659 N   0  0  0  0  0  0  0  0  0  0  0  0
   18.5038    3.7178   11.7082 O   0  0  0  0  0  0  0  0  0  0  0  0
   15.0018    6.2474   16.2839 O   0  0  0  0  0  0  0  0  0  0  0  0
   14.6929   10.9984   12.8841 C   0  0  0  0  0  0  0  0  0  0  0  0
   14.6198   11.5492   14.1759 C   0  0  0  0  0  0  0  0  0  0  0  0
   14.5883   10.6170   15.1333 N   0  0  0  0  0  0  0  0  0  0  0  0
   14.6812    9.4468   14.4604 N   0  0  0  0  0  0  0  0  0  0  0  0
   14.8092    9.6377   13.1168 C   0  0  0  0  0  0  0  0  0  0  0  0
   16.5284    4.1179   14.7742 C   0  0  0  0  0  0  0  0  0  0  0  0
   17.7823    4.2615   13.9224 C   0  0  0  0  0  0  0  0  0  0  0  0
   17.5706    4.0091   12.4476 C   0  0  0  0  0  0  0  0  0  0  0  0
   16.3234    4.2123   11.9320 N   0  0  0  0  0  0  0  0  0  0  0  0
   15.1351    4.1097   12.7464 C   0  0  0  0  0  0  0  0  0  0  0  0
   15.3038    4.7841   14.1263 C   0  0  2  0  0  0  0  0  0  0  0  0
  2  1  1  0
  3  2  2  0
  5  4  1  0
  6  5  1  0
  7  5  1  0
  9  5  1  0
 10  2  1  0
 10 11  1  0
 10 14  2  0
 11 12  2  0
 12 13  1  0
 13 14  1  0
 13  4  1  0
 15 20  1  0
 15 16  1  0
 16 17  1  0
 17 18  1  0
 17  8  2  0
 18 19  1  0
 19 20  1  0
 20  7  1  6
M  END
>  <generation_date>  (154) 
None

>  <inchikey>  (154) 
PLEPWHFYPQNIMI-MRVPVSSYSA-N

>  <ref_mols>  (154) 
cx0477a,cx0300a

>  <tags>  (154) 
['butcher: adenine', 'select (DF) [batch4_others]', 'pure_merges', 'fragmenstein', 'select (HA) [batch4_others]', 'butcher: oxyanion', 'raw']

>  <ref_pdb>  (154) 
cx0300a

>  <alias>  (154) 
cx0477a-cx0300a

>  <submitter_name>  (154) 
None

>  <HIPPO ID>  (154) 
1684

>  <original ID>  (154) 
cx0477a-cx0300a

>  <method>  (154) 
None

>  <ref_url>  (154) 
None

>  <submitter_email>  (154) 
None

>  <original SMILES>  (154) 
NC(=O)c1cnn(CC(O)(O)N[C@@H]2CCC(=O)NC2)c1

$$$$
cx0477a-cx1406a
     RDKit          3D

 14 15  0  0  0  0  0  0  0  0999 V2000
   14.1886   12.9487   11.2829 N   0  0  0  0  0  0  0  0  0  0  0  0
   14.5024    8.1070   14.8582 C   0  0  0  0  0  0  0  0  0  0  0  0
   15.7293    7.7429   15.6758 C   0  0  0  0  0  0  0  0  0  0  0  0
   16.7830    7.3098   14.8200 O   0  0  0  0  0  0  0  0  0  0  0  0
   14.8428    7.3206   11.6141 C   0  0  0  0  0  0  0  0  0  0  0  0
   14.6666   11.0177   12.7181 C   0  0  0  0  0  0  0  0  0  0  0  0
   14.5699   11.4818   14.0419 C   0  0  0  0  0  0  0  0  0  0  0  0
   14.5599   10.4919   14.9317 N   0  0  0  0  0  0  0  0  0  0  0  0
   14.6703    9.3755   14.1723 N   0  0  0  0  0  0  0  0  0  0  0  0
   14.7671    9.6257   12.8175 C   0  0  0  0  0  0  0  0  0  0  0  0
   14.8275    8.8166   11.6547 C   0  0  0  0  0  0  0  0  0  0  0  0
   14.8577    9.5414   10.4547 C   0  0  0  0  0  0  0  0  0  0  0  0
   14.7557   10.8826   10.3454 N   0  0  0  0  0  0  0  0  0  0  0  0
   14.5973   11.6256   11.4601 C   0  0  0  0  0  0  0  0  0  0  0  0
  3  2  1  0
  4  3  1  0
  6  7  1  0
  6 10  2  0
  7  8  2  0
  8  9  1  0
  9 10  1  0
  9  2  1  0
 11  5  1  0
 11 12  2  0
 12 13  1  0
 13 14  2  0
  6 14  1  0
 10 11  1  0
 14  1  1  0
M  END
>  <generation_date>  (155) 
None

>  <inchikey>  (155) 
HEQWAJPSRIMLQQ-UHFFFAOYSA-N

>  <ref_mols>  (155) 
cx0477a,cx1406a

>  <tags>  (155) 
['butcher: adenine', 'pure_merges', 'fragmenstein', 'select (HA) [batch1_adenine]', 'raw']

>  <ref_pdb>  (155) 
cx0300a

>  <alias>  (155) 
cx0477a-cx1406a

>  <submitter_name>  (155) 
None

>  <HIPPO ID>  (155) 
1685

>  <original ID>  (155) 
cx0477a-cx1406a

>  <method>  (155) 
None

>  <ref_url>  (155) 
None

>  <submitter_email>  (155) 
None

>  <original SMILES>  (155) 
Cc1cnc(N)c2cnn(CCO)c12

$$$$
cx0477a-cx1316a
     RDKit          3D

 14 14  0  0  0  0  0  0  0  0999 V2000
   15.0417   13.1081   11.8069 N   0  0  0  0  0  0  0  0  0  0  0  0
   14.5388   11.7881   11.6300 C   0  0  1  0  0  0  0  0  0  0  0  0
   13.2631   12.0778   11.1731 O   0  0  0  0  0  0  0  0  0  0  0  0
   14.5064    8.2591   15.2174 C   0  0  0  0  0  0  0  0  0  0  0  0
   15.8085    7.7999   15.8459 C   0  0  0  0  0  0  0  0  0  0  0  0
   16.7120    7.3461   14.8403 O   0  0  0  0  0  0  0  0  0  0  0  0
   14.6664   10.0707    9.8700 C   0  0  0  0  0  0  0  0  0  0  0  0
   15.2627   11.1293   10.5999 O   0  0  0  0  0  0  0  0  0  0  0  0
   14.5751   12.8449   14.7539 O   0  0  0  0  0  0  0  0  0  0  0  0
   14.6082   11.0900   12.9567 C   0  0  0  0  0  0  0  0  0  0  0  0
   14.6032   11.5982   14.2777 C   0  0  0  0  0  0  0  0  0  0  0  0
   14.6150   10.6813   15.2395 N   0  0  0  0  0  0  0  0  0  0  0  0
   14.6587    9.5340   14.5433 N   0  0  0  0  0  0  0  0  0  0  0  0
   14.7428    9.7288   13.1989 C   0  0  0  0  0  0  0  0  0  0  0  0
  2  1  1  1
  2  3  1  0
  5  4  1  0
  6  5  1  0
  8  7  1  0
  8  2  1  0
 10  2  1  0
 10 11  1  0
 10 14  2  0
 11 12  2  0
 12 13  1  0
 13 14  1  0
 13  4  1  0
  9 11  1  0
M  END
>  <generation_date>  (156) 
None

>  <inchikey>  (156) 
VSQQXNFZYOIUOE-ZETCQYMHSA-N

>  <ref_mols>  (156) 
cx0477a,cx1316a

>  <tags>  (156) 
['butcher: adenine', 'pure_merges', 'fragmenstein', 'select (HA) [batch1_adenine]', 'raw']

>  <ref_pdb>  (156) 
cx0300a

>  <alias>  (156) 
cx0477a-cx1316a

>  <submitter_name>  (156) 
None

>  <HIPPO ID>  (156) 
1690

>  <original ID>  (156) 
cx0477a-cx1316a

>  <method>  (156) 
None

>  <ref_url>  (156) 
None

>  <submitter_email>  (156) 
None

>  <original SMILES>  (156) 
CO[C@@](N)(O)c1cn(CCO)nc1O

$$$$
cx1075a-cx0721a
     RDKit          3D

 16 16  0  0  0  0  0  0  0  0999 V2000
   13.8732   12.9786   10.8753 N   0  0  0  0  0  0  0  0  0  0  0  0
   15.0721    8.9724   13.2516 N   0  0  0  0  0  0  0  0  0  0  0  0
   15.8334    5.9988   17.0606 N   0  0  0  0  0  0  0  0  0  0  0  0
   16.7027    6.5467   18.0860 C   0  0  0  0  0  0  0  0  0  0  0  0
   14.3142    6.4974   15.4160 O   0  0  0  0  0  0  0  0  0  0  0  0
   15.1629    4.7599   17.3641 C   0  0  0  0  0  0  0  0  0  0  0  0
   15.4065    6.7068   15.9448 C   0  0  0  0  0  0  0  0  0  0  0  0
   16.4181    7.6853   15.3699 C   0  0  0  0  0  0  0  0  0  0  0  0
   15.4701    9.6168   14.2904 C   0  0  0  0  0  0  0  0  0  0  0  0
   15.9183    9.0400   15.4325 N   0  0  0  0  0  0  0  0  0  0  0  0
   14.4082   11.6949   10.8888 C   0  0  0  0  0  0  0  0  0  0  0  0
   14.6031   11.0892    9.7080 N   0  0  0  0  0  0  0  0  0  0  0  0
   14.8137    9.7637    9.7083 C   0  0  0  0  0  0  0  0  0  0  0  0
   14.9091    9.0279   10.8642 C   0  0  0  0  0  0  0  0  0  0  0  0
   14.8419    9.7065   12.0845 C   0  0  0  0  0  0  0  0  0  0  0  0
   14.5494   11.0619   12.0922 C   0  0  0  0  0  0  0  0  0  0  0  0
  4  3  1  0
  6  3  1  0
  7  5  2  0
  7  3  1  0
  8  7  1  0
 10  9  1  0
 10  8  1  0
  9  2  2  0
 11  1  1  0
 11 16  2  0
 11 12  1  0
 12 13  2  0
 13 14  1  0
 14 15  2  0
 15 16  1  0
 15  2  1  0
M  END
>  <generation_date>  (157) 
None

>  <inchikey>  (157) 
TWPHUHMAYCPEGO-UHFFFAOYSA-N

>  <ref_mols>  (157) 
cx1075a,cx0721a

>  <tags>  (157) 
['butcher: adenine', 'pure_merges', 'fragmenstein', 'select (JA) [batch2_adenine2]', 'raw']

>  <ref_pdb>  (157) 
cx0300a

>  <alias>  (157) 
cx1075a-cx0721a

>  <submitter_name>  (157) 
None

>  <HIPPO ID>  (157) 
1758

>  <original ID>  (157) 
cx1075a-cx0721a

>  <method>  (157) 
None

>  <ref_url>  (157) 
None

>  <submitter_email>  (157) 
None

>  <original SMILES>  (157) 
CN(C)C(=O)CN/C=N/c1ccnc(N)c1

$$$$
cx1203a-cx0477a
     RDKit          3D

 16 18  0  0  0  0  0  0  0  0999 V2000
   14.7855   14.0395   12.4561 N   0  0  0  0  0  0  0  0  0  0  0  0
   14.3840    8.6881   14.8431 C   0  0  0  0  0  0  0  0  0  0  0  0
   15.3394    7.8615   15.7150 C   0  0  0  0  0  0  0  0  0  0  0  0
   16.4397    7.3777   14.9409 O   0  0  0  0  0  0  0  0  0  0  0  0
   14.9225   11.9132   13.3160 N   0  0  0  0  0  0  0  0  0  0  0  0
   14.3447   12.6943   12.2711 C   0  0  2  0  0  0  0  0  0  0  0  0
   14.9442   12.2898   11.0180 N   0  0  0  0  0  0  0  0  0  0  0  0
   14.5685   10.9249   10.6894 C   0  0  1  0  0  0  0  0  0  0  0  0
   15.1020   10.0719    9.5435 C   0  0  0  0  0  0  0  0  0  0  0  0
   14.6745    8.6469    9.8998 C   0  0  0  0  0  0  0  0  0  0  0  0
   14.6799    8.5599   11.4203 C   0  0  0  0  0  0  0  0  0  0  0  0
   14.8907   10.0099   11.8720 C   0  0  2  0  0  0  0  0  0  0  0  0
   14.6827   12.2211   14.6971 C   0  0  0  0  0  0  0  0  0  0  0  0
   14.9580   10.9693   15.4293 N   0  0  0  0  0  0  0  0  0  0  0  0
   15.0359    9.9227   14.3907 N   0  0  0  0  0  0  0  0  0  0  0  0
   14.4602   10.5416   13.2089 C   0  0  1  0  0  0  0  0  0  0  0  0
  3  2  1  0
  4  3  1  0
  5  6  1  0
  6  1  1  1
  6  7  1  0
  7  8  1  0
  8  9  1  6
  9 10  1  0
 10 11  1  0
 12 11  1  6
 13 14  1  0
 14 15  1  0
 16 15  1  1
 15  2  1  0
  5 13  1  0
  5 16  1  0
 12 16  1  0
 12  8  1  0
M  END
>  <generation_date>  (158) 
None

>  <inchikey>  (158) 
LRXYCHULKTTXDP-QEYWKRMJSA-N

>  <ref_mols>  (158) 
cx0477a,cx1203a

>  <tags>  (158) 
['butcher: adenine', 'pure_merges', 'fragmenstein', 'select (HA) [batch2_adenine2]', 'select (DF) [batch2_adenine2]', 'raw']

>  <ref_pdb>  (158) 
cx0300a

>  <alias>  (158) 
cx1203a-cx0477a

>  <submitter_name>  (158) 
None

>  <HIPPO ID>  (158) 
1780

>  <original ID>  (158) 
cx1203a-cx0477a

>  <method>  (158) 
None

>  <ref_url>  (158) 
None

>  <submitter_email>  (158) 
None

>  <original SMILES>  (158) 
N[C@H]1N[C@H]2CCC[C@@H]2[C@H]2N(CCO)NCN12

$$$$
cx1203a-cx0721a
     RDKit          3D

 17 18  0  0  0  0  0  0  0  0999 V2000
   14.9614   10.2878   14.7513 C   0  0  0  0  0  0  0  0  0  0  0  0
   14.3976   12.8967   13.4551 N   0  0  0  0  0  0  0  0  0  0  0  0
   15.7198    6.8018   16.2294 N   0  0  0  0  0  0  0  0  0  0  0  0
   16.9638    6.9746   16.9634 C   0  0  0  0  0  0  0  0  0  0  0  0
   13.8244    7.7792   15.3814 O   0  0  0  0  0  0  0  0  0  0  0  0
   14.9793    5.5846   16.5287 C   0  0  0  0  0  0  0  0  0  0  0  0
   15.0243    7.8614   15.6431 C   0  0  0  0  0  0  0  0  0  0  0  0
   15.8211    9.1173   15.2852 C   0  0  0  0  0  0  0  0  0  0  0  0
   14.8947   10.5401   13.3216 N   0  0  0  0  0  0  0  0  0  0  0  0
   14.6950   11.7860   12.7491 C   0  0  0  0  0  0  0  0  0  0  0  0
   14.7690   11.7476   11.4474 N   0  0  0  0  0  0  0  0  0  0  0  0
   14.8242   10.4210   11.1403 C   0  0  0  0  0  0  0  0  0  0  0  0
   14.8653    9.6254   12.2916 C   0  0  0  0  0  0  0  0  0  0  0  0
   14.7196    9.8258    9.8793 C   0  0  0  0  0  0  0  0  0  0  0  0
   14.5388    8.4467    9.8206 C   0  0  0  0  0  0  0  0  0  0  0  0
   14.6164    7.6480   10.9585 C   0  0  0  0  0  0  0  0  0  0  0  0
   14.8026    8.2213   12.2195 C   0  0  0  0  0  0  0  0  0  0  0  0
  4  3  1  0
  6  3  1  0
  7  5  2  0
  7  3  1  0
  8  7  1  0
  8  1  1  0
  9  1  1  0
  9 10  1  0
  9 13  1  0
 10  2  1  0
 10 11  2  0
 11 12  1  0
 12 14  1  0
 12 13  2  0
 13 17  1  0
 14 15  2  0
 15 16  1  0
 16 17  2  0
M  END
>  <generation_date>  (159) 
None

>  <inchikey>  (159) 
NKJAJRVGEJXHQV-UHFFFAOYSA-N

>  <ref_mols>  (159) 
cx1203a,cx0721a

>  <tags>  (159) 
['butcher: adenine', 'pure_merges', 'fragmenstein', 'select (HA) [batch2_adenine2]', 'raw']

>  <ref_pdb>  (159) 
cx0300a

>  <alias>  (159) 
cx1203a-cx0721a

>  <submitter_name>  (159) 
None

>  <HIPPO ID>  (159) 
1783

>  <original ID>  (159) 
cx1203a-cx0721a

>  <method>  (159) 
None

>  <ref_url>  (159) 
None

>  <submitter_email>  (159) 
None

>  <original SMILES>  (159) 
CN(C)C(=O)CCn1c(N)nc2ccccc21

$$$$
cx1203a-cx0406a
     RDKit          3D

 18 20  0  0  0  0  0  0  0  0999 V2000
   14.8006   11.9655   13.9349 C   0  0  0  0  0  0  0  0  0  0  0  0
   13.7942   13.2354   11.4414 N   0  0  0  0  0  0  0  0  0  0  0  0
   11.5085    6.1117   13.5341 O   0  0  0  0  0  0  0  0  0  0  0  0
   12.2270    5.5814   12.4257 C   0  0  0  0  0  0  0  0  0  0  0  0
   14.7953   11.4354   12.5982 N   0  0  0  0  0  0  0  0  0  0  0  0
   14.4793   12.0827   11.4443 C   0  0  0  0  0  0  0  0  0  0  0  0
   14.7056   11.3460   10.3867 N   0  0  0  0  0  0  0  0  0  0  0  0
   14.8572   10.0857   10.8793 C   0  0  0  0  0  0  0  0  0  0  0  0
   14.8992   10.1150   12.2702 C   0  0  0  0  0  0  0  0  0  0  0  0
   14.8481    8.8563   10.2057 C   0  0  0  0  0  0  0  0  0  0  0  0
   14.7450    7.6905   10.9789 C   0  0  0  0  0  0  0  0  0  0  0  0
   14.7296    7.7592   12.3822 C   0  0  0  0  0  0  0  0  0  0  0  0
   14.9125    8.9783   13.0535 C   0  0  0  0  0  0  0  0  0  0  0  0
   15.6712    6.0767   13.9644 C   0  0  0  0  0  0  0  0  0  0  0  0
   14.4110    6.6228   13.3014 C   0  0  2  0  0  0  0  0  0  0  0  0
   13.7164    5.3787   12.7537 C   0  0  1  0  0  0  0  0  0  0  0  0
   13.9943    4.3607   13.8718 C   0  0  0  0  0  0  0  0  0  0  0  0
   15.1194    4.9073   14.7468 C   0  0  0  0  0  0  0  0  0  0  0  0
  4  3  1  0
  5  1  1  0
  5  6  1  0
  5  9  1  0
  6  2  1  0
  6  7  2  0
  7  8  1  0
  8 10  1  0
  8  9  2  0
  9 13  1  0
 10 11  2  0
 11 12  1  0
 12 13  2  0
 14 15  1  0
 14 18  1  0
 15 16  1  0
 16 17  1  0
 16  4  1  1
 17 18  1  0
 15 12  1  6
M  END
>  <generation_date>  (160) 
None

>  <inchikey>  (160) 
UBUICWLROHQCMP-QWRGUYRKSA-N

>  <ref_mols>  (160) 
cx1203a,cx0406a

>  <tags>  (160) 
['butcher: adenine', 'pure_merges', 'butcher: phosphate', 'fragmenstein', 'select (HA) [batch4_others]', 'butcher: oxyanion', 'raw']

>  <ref_pdb>  (160) 
cx0300a

>  <alias>  (160) 
cx1203a-cx0406a

>  <submitter_name>  (160) 
None

>  <HIPPO ID>  (160) 
1784

>  <original ID>  (160) 
cx1203a-cx0406a

>  <method>  (160) 
None

>  <ref_url>  (160) 
None

>  <submitter_email>  (160) 
None

>  <original SMILES>  (160) 
Cn1c(N)nc2ccc([C@@H]3CCC[C@H]3CO)cc21

$$$$
cx1076a-cx0300a
     RDKit          3D

 21 23  0  0  0  0  0  0  0  0999 V2000
   14.3467   11.5262   10.8578 O   0  0  0  0  0  0  0  0  0  0  0  0
   15.2337    5.8603   14.0478 N   0  0  0  0  0  0  0  0  0  0  0  0
   15.0401    6.7086   15.1233 C   0  0  0  0  0  0  0  0  0  0  0  0
   14.5947    6.3227   16.1978 O   0  0  0  0  0  0  0  0  0  0  0  0
   18.5085    3.8115   11.8426 O   0  0  0  0  0  0  0  0  0  0  0  0
   14.1322   12.7117   12.7699 N   0  0  0  0  0  0  0  0  0  0  0  0
   14.5449   12.9376   14.1269 C   0  0  0  0  0  0  0  0  0  0  0  0
   14.3845   11.6680   14.9351 C   0  0  0  0  0  0  0  0  0  0  0  0
   15.0702   10.4438   14.3500 C   0  0  2  0  0  0  0  0  0  0  0  0
   15.2720   10.5740   12.8381 C   0  0  0  0  0  0  0  0  0  0  0  0
   14.5188   11.6164   12.0684 C   0  0  0  0  0  0  0  0  0  0  0  0
   16.3423    3.7895   14.8250 C   0  0  0  0  0  0  0  0  0  0  0  0
   17.6323    4.0698   14.0588 C   0  0  0  0  0  0  0  0  0  0  0  0
   17.5192    3.9416   12.5539 C   0  0  0  0  0  0  0  0  0  0  0  0
   16.2864    4.1043   11.9860 N   0  0  0  0  0  0  0  0  0  0  0  0
   15.0655    3.8266   12.7171 C   0  0  0  0  0  0  0  0  0  0  0  0
   15.1237    4.4080   14.1302 C   0  0  2  0  0  0  0  0  0  0  0  0
   16.3887    8.6865   15.9155 C   0  0  0  0  0  0  0  0  0  0  0  0
   15.5064    8.1419   14.8186 C   0  0  2  0  0  0  0  0  0  0  0  0
   14.4145    9.1402   14.6727 N   0  0  0  0  0  0  0  0  0  0  0  0
   16.6567   10.3805   15.3337 S   0  0  0  0  0  0  0  0  0  0  0  0
  3  2  1  0
  4  3  2  0
  6 11  1  0
  6  7  1  0
  7  8  1  0
  9  8  1  1
  9 10  1  0
 10 11  1  0
 11  1  2  0
 12 17  1  0
 12 13  1  0
 13 14  1  0
 14 15  1  0
 14  5  2  0
 15 16  1  0
 16 17  1  0
 17  2  1  6
 18 19  1  0
 18 21  1  0
 19  3  1  1
 19 20  1  0
  9 20  1  0
  9 21  1  0
M  END
>  <generation_date>  (161) 
None

>  <inchikey>  (161) 
YHGCJJWAPVTIRQ-ZDMBXUJBSA-N

>  <ref_mols>  (161) 
cx1076a,cx0300a

>  <tags>  (161) 
['butcher: adenine', 'select (DF) [batch4_others]', 'pure_merges', 'fragmenstein', 'select (HA) [batch4_others]', 'butcher: oxyanion', 'raw']

>  <ref_pdb>  (161) 
cx0300a

>  <alias>  (161) 
cx1076a-cx0300a

>  <submitter_name>  (161) 
None

>  <HIPPO ID>  (161) 
1800

>  <original ID>  (161) 
cx1076a-cx0300a

>  <method>  (161) 
None

>  <ref_url>  (161) 
None

>  <submitter_email>  (161) 
None

>  <original SMILES>  (161) 
O=C1CC[C@@H](NC(=O)[C@@H]2CS[C@]3(CCNC(=O)C3)N2)CN1

$$$$
cx1076a-cx0721a
     RDKit          3D

 16 16  0  0  0  0  0  0  0  0999 V2000
   14.4768   12.0346   10.7090 O   0  0  0  0  0  0  0  0  0  0  0  0
   15.2697    8.7884   14.0867 N   0  0  0  0  0  0  0  0  0  0  0  0
   15.7437    6.4529   16.8476 N   0  0  0  0  0  0  0  0  0  0  0  0
   16.9221    6.8210   17.6140 C   0  0  0  0  0  0  0  0  0  0  0  0
   13.8278    7.1622   15.8047 O   0  0  0  0  0  0  0  0  0  0  0  0
   15.1408    5.1741   17.1662 C   0  0  0  0  0  0  0  0  0  0  0  0
   15.0203    7.3363   16.0569 C   0  0  0  0  0  0  0  0  0  0  0  0
   15.8155    8.4821   15.4125 C   0  0  0  0  0  0  0  0  0  0  0  0
   15.2943    7.6925   13.2066 C   0  0  0  0  0  0  0  0  0  0  0  0
   15.0168    7.6277   12.0178 O   0  0  0  0  0  0  0  0  0  0  0  0
   14.3306   12.6941   12.8921 N   0  0  0  0  0  0  0  0  0  0  0  0
   14.4396   12.4063   14.2217 C   0  0  0  0  0  0  0  0  0  0  0  0
   14.7658   11.1707   14.6265 C   0  0  0  0  0  0  0  0  0  0  0  0
   14.9772   10.0948   13.6620 C   0  0  0  0  0  0  0  0  0  0  0  0
   14.8622   10.4154   12.3588 C   0  0  0  0  0  0  0  0  0  0  0  0
   14.5450   11.7780   11.9015 C   0  0  0  0  0  0  0  0  0  0  0  0
  4  3  1  0
  6  3  1  0
  7  5  2  0
  7  3  1  0
  8  7  1  0
  8  2  1  0
 10  9  2  0
  9  2  1  0
 11 16  1  0
 11 12  1  0
 12 13  2  0
 13 14  1  0
 14 15  2  0
 14  2  1  0
 15 16  1  0
 16  1  2  0
M  END
>  <generation_date>  (162) 
None

>  <inchikey>  (162) 
KKYCNGMNUUPLTM-UHFFFAOYSA-N

>  <ref_mols>  (162) 
cx1076a,cx0721a

>  <tags>  (162) 
['butcher: adenine', 'pure_merges', 'fragmenstein', 'select (DF) [batch2_adenine2]', 'raw']

>  <ref_pdb>  (162) 
cx0300a

>  <alias>  (162) 
cx1076a-cx0721a

>  <submitter_name>  (162) 
None

>  <HIPPO ID>  (162) 
1803

>  <original ID>  (162) 
cx1076a-cx0721a

>  <method>  (162) 
None

>  <ref_url>  (162) 
None

>  <submitter_email>  (162) 
None

>  <original SMILES>  (162) 
CN(C)C(=O)CN(C=O)c1cc[nH]c(=O)c1

$$$$
cx1076a-cx0406a
     RDKit          3D

 18 20  0  0  0  0  0  0  0  0999 V2000
   15.1471    9.2378   15.0609 Br  0  0  0  0  0  0  0  0  0  0  0  0
   11.2881    6.7090   13.3676 O   0  0  0  0  0  0  0  0  0  0  0  0
   11.9347    5.9220   12.3782 C   0  0  0  0  0  0  0  0  0  0  0  0
   14.6665    7.5825   11.6839 N   0  0  0  0  0  0  0  0  0  0  0  0
   14.5314   12.5656   11.6664 N   0  0  0  0  0  0  0  0  0  0  0  0
   14.4730   12.7085   13.0034 C   0  0  0  0  0  0  0  0  0  0  0  0
   14.6324   11.7106   13.9593 C   0  0  0  0  0  0  0  0  0  0  0  0
   14.8272   10.3686   13.5991 C   0  0  0  0  0  0  0  0  0  0  0  0
   14.8095   10.1394   12.1947 C   0  0  0  0  0  0  0  0  0  0  0  0
   14.7070   11.2788   11.2442 C   0  0  0  0  0  0  0  0  0  0  0  0
   14.8089   10.9773    9.9578 N   0  0  0  0  0  0  0  0  0  0  0  0
   14.7719    8.9322   11.4649 C   0  0  0  0  0  0  0  0  0  0  0  0
   14.8740    9.3619    9.7684 S   0  0  0  0  0  0  0  0  0  0  0  0
   15.5275    6.2861   13.5286 C   0  0  0  0  0  0  0  0  0  0  0  0
   14.2799    6.9300   12.9105 C   0  0  2  0  0  0  0  0  0  0  0  0
   13.4001    5.6789   12.7349 C   0  0  1  0  0  0  0  0  0  0  0  0
   13.5689    5.0130   14.1131 C   0  0  0  0  0  0  0  0  0  0  0  0
   14.9723    5.3643   14.5969 C   0  0  0  0  0  0  0  0  0  0  0  0
  3  2  1  0
  5 10  1  0
  5  6  2  0
  6  7  1  0
  7  8  2  0
  8  9  1  0
  8  1  1  0
  9 10  1  0
 11 13  1  0
 12  4  1  0
 12 13  1  0
 14 15  1  0
 14 18  1  0
 15 16  1  0
 15  4  1  6
 16 17  1  0
 16  3  1  1
 17 18  1  0
 10 11  2  0
  9 12  2  0
M  END
>  <generation_date>  (163) 
None

>  <inchikey>  (163) 
XTDJSPGVMIVFLZ-IONNQARKSA-N

>  <ref_mols>  (163) 
cx1076a,cx0406a

>  <tags>  (163) 
['butcher: adenine', 'select (DF) [batch4_others]', 'pure_merges', 'butcher: phosphate', 'fragmenstein', 'select (HA) [batch4_others]', 'butcher: oxyanion', 'raw']

>  <ref_pdb>  (163) 
cx0300a

>  <alias>  (163) 
cx1076a-cx0406a

>  <submitter_name>  (163) 
None

>  <HIPPO ID>  (163) 
1805

>  <original ID>  (163) 
cx1076a-cx0406a

>  <method>  (163) 
None

>  <ref_url>  (163) 
None

>  <submitter_email>  (163) 
None

>  <original SMILES>  (163) 
OC[C@@H]1CCC[C@H]1Nc1snc2nccc(Br)c12

$$$$
cx0839a-cx0892a_copy
     RDKit          3D

 19 21  0  0  0  0  0  0  0  0999 V2000
   14.6890   12.8502   14.7520 N   0  0  0  0  0  0  0  0  0  0  0  0
   15.2785   12.1933   15.9008 C   0  0  0  0  0  0  0  0  0  0  0  0
   14.5404    6.5587   13.8513 C   0  0  0  0  0  0  0  0  0  0  0  0
   15.0064    7.9327   13.6818 N   0  0  0  0  0  0  0  0  0  0  0  0
   14.6940   12.0537   13.5895 C   0  0  0  0  0  0  0  0  0  0  0  0
   14.8512   10.7178   13.6445 N   0  0  0  0  0  0  0  0  0  0  0  0
   14.8422   10.0357   12.4671 C   0  0  0  0  0  0  0  0  0  0  0  0
   14.7405   10.7316   11.2313 C   0  0  0  0  0  0  0  0  0  0  0  0
   14.5517   12.0540   11.1767 N   0  0  0  0  0  0  0  0  0  0  0  0
   14.4779   12.6727   12.3676 C   0  0  0  0  0  0  0  0  0  0  0  0
   14.7298   10.0279   10.0408 C   0  0  0  0  0  0  0  0  0  0  0  0
   14.7348    8.6411   10.0354 C   0  0  0  0  0  0  0  0  0  0  0  0
   14.8134    7.9314   11.2275 C   0  0  0  0  0  0  0  0  0  0  0  0
   14.8537    8.6135   12.4545 C   0  0  0  0  0  0  0  0  0  0  0  0
   12.4449    5.5471   12.6943 C   0  0  0  0  0  0  0  0  0  0  0  0
   13.0702    6.3108   13.6626 C   0  0  0  0  0  0  0  0  0  0  0  0
   11.9328    7.0080   14.7399 S   0  0  0  0  0  0  0  0  0  0  0  0
   10.6137    6.3361   13.8834 C   0  0  0  0  0  0  0  0  0  0  0  0
   11.0257    5.5699   12.8173 C   0  0  0  0  0  0  0  0  0  0  0  0
  2  1  1  0
  4  3  1  0
  5  1  1  0
  5 10  2  0
  5  6  1  0
  6  7  2  0
  7  8  1  0
  7 14  1  0
  8 11  1  0
  8  9  2  0
  9 10  1  0
 11 12  2  0
 12 13  1  0
 13 14  2  0
 15 16  2  0
 15 19  1  0
 16  3  1  0
 16 17  1  0
 17 18  1  0
 18 19  2  0
 14  4  1  0
M  END
>  <generation_date>  (164) 
None

>  <inchikey>  (164) 
ALGNJYIWMHXFNH-UHFFFAOYSA-N

>  <ref_mols>  (164) 
cx0892a,cx0839a

>  <tags>  (164) 
['butcher: adenine', 'select (DF) [batch4_others]', 'pure_merges', 'butcher: phosphate', 'fragmenstein', 'select (HA) [batch4_others]', 'raw']

>  <ref_pdb>  (164) 
cx0300a

>  <alias>  (164) 
cx0839a-cx0892a_copy

>  <submitter_name>  (164) 
None

>  <HIPPO ID>  (164) 
1825

>  <original ID>  (164) 
cx0839a-cx0892a_copy

>  <method>  (164) 
None

>  <ref_url>  (164) 
None

>  <submitter_email>  (164) 
None

>  <original SMILES>  (164) 
CNc1cnc2cccc(NCc3cccs3)c2n1

$$$$
cx0839a-cx1410a
     RDKit          3D

 14 15  0  0  0  0  0  0  0  0999 V2000
   14.8444   12.8411   14.8520 N   0  0  0  0  0  0  0  0  0  0  0  0
   15.3147   12.0951   16.0029 C   0  0  0  0  0  0  0  0  0  0  0  0
   14.7025   14.1698   12.4580 N   0  0  0  0  0  0  0  0  0  0  0  0
   14.8950    6.6540   11.3305 F   0  0  0  0  0  0  0  0  0  0  0  0
   14.7827   12.0581   13.6667 C   0  0  0  0  0  0  0  0  0  0  0  0
   14.8478   10.7157   13.7162 N   0  0  0  0  0  0  0  0  0  0  0  0
   14.8333   10.0762   12.5357 C   0  0  0  0  0  0  0  0  0  0  0  0
   14.7603   10.7814   11.2987 C   0  0  0  0  0  0  0  0  0  0  0  0
   14.6551   12.1157   11.2527 N   0  0  0  0  0  0  0  0  0  0  0  0
   14.6367   12.7454   12.4329 C   0  0  0  0  0  0  0  0  0  0  0  0
   14.7500   10.0613   10.1104 C   0  0  0  0  0  0  0  0  0  0  0  0
   14.7582    8.6693   10.1186 C   0  0  0  0  0  0  0  0  0  0  0  0
   14.8203    7.9898   11.3251 C   0  0  0  0  0  0  0  0  0  0  0  0
   14.8613    8.6854   12.5287 C   0  0  0  0  0  0  0  0  0  0  0  0
  2  1  1  0
  5  1  1  0
  5 10  2  0
  5  6  1  0
  6  7  2  0
  7  8  1  0
  7 14  1  0
  8 11  1  0
  8  9  2  0
  9 10  1  0
 11 12  2  0
 12 13  1  0
 13 14  2  0
  3 10  1  0
  4 13  1  0
M  END
>  <generation_date>  (165) 
None

>  <inchikey>  (165) 
NEMWMYMPRDCSAZ-UHFFFAOYSA-N

>  <ref_mols>  (165) 
cx1410a,cx0839a

>  <tags>  (165) 
['butcher: adenine', 'pure_merges', 'fragmenstein', 'select (HA) [batch2_adenine2]', 'raw']

>  <ref_pdb>  (165) 
cx0300a

>  <alias>  (165) 
cx0839a-cx1410a

>  <submitter_name>  (165) 
None

>  <HIPPO ID>  (165) 
1827

>  <original ID>  (165) 
cx0839a-cx1410a

>  <method>  (165) 
None

>  <ref_url>  (165) 
None

>  <submitter_email>  (165) 
None

>  <original SMILES>  (165) 
CNc1nc2cc(F)ccc2nc1N

$$$$
cx0839a-cx0394a
     RDKit          3D

 14 15  0  0  0  0  0  0  0  0999 V2000
   14.5073   13.1141   14.0040 N   0  0  0  0  0  0  0  0  0  0  0  0
   14.9318   12.8644   15.3712 C   0  0  0  0  0  0  0  0  0  0  0  0
   14.9450    8.2540   14.8642 C   0  0  0  0  0  0  0  0  0  0  0  0
   14.6347   11.3110    9.5793 O   0  0  0  0  0  0  0  0  0  0  0  0
   14.6454   11.9945   13.1567 C   0  0  0  0  0  0  0  0  0  0  0  0
   14.8237   10.7679   13.6655 N   0  0  0  0  0  0  0  0  0  0  0  0
   14.8787    9.7112   12.8310 C   0  0  0  0  0  0  0  0  0  0  0  0
   14.8277    9.8473   11.4253 C   0  0  0  0  0  0  0  0  0  0  0  0
   14.6880   11.1367   10.9280 C   0  0  0  0  0  0  0  0  0  0  0  0
   14.5390   12.2000   11.7942 C   0  0  0  0  0  0  0  0  0  0  0  0
   14.8187    8.7132   10.5803 C   0  0  0  0  0  0  0  0  0  0  0  0
   14.8264    7.4401   11.1343 C   0  0  0  0  0  0  0  0  0  0  0  0
   14.8897    7.2953   12.5192 C   0  0  0  0  0  0  0  0  0  0  0  0
   14.9269    8.4219   13.3643 C   0  0  0  0  0  0  0  0  0  0  0  0
  2  1  1  0
  5  1  1  0
  5 10  2  0
  5  6  1  0
  6  7  2  0
  7  8  1  0
  7 14  1  0
  8 11  1  0
  8  9  2  0
  9 10  1  0
 11 12  2  0
 12 13  1  0
 13 14  2  0
  9  4  1  0
  3 14  1  0
M  END
>  <generation_date>  (166) 
None

>  <inchikey>  (166) 
PNRUISACUUIHST-UHFFFAOYSA-N

>  <ref_mols>  (166) 
cx0394a,cx0839a

>  <tags>  (166) 
['butcher: adenine', 'pure_merges', 'fragmenstein', 'select (HA) [batch2_adenine2]', 'raw']

>  <ref_pdb>  (166) 
cx0300a

>  <alias>  (166) 
cx0839a-cx0394a

>  <submitter_name>  (166) 
None

>  <HIPPO ID>  (166) 
1828

>  <original ID>  (166) 
cx0839a-cx0394a

>  <method>  (166) 
None

>  <ref_url>  (166) 
None

>  <submitter_email>  (166) 
None

>  <original SMILES>  (166) 
CNc1cc(O)c2cccc(C)c2n1

$$$$
cx0839a-cx0721a
     RDKit          3D

 19 20  0  0  0  0  0  0  0  0999 V2000
   14.3973   13.3344   13.0647 N   0  0  0  0  0  0  0  0  0  0  0  0
   14.6255   13.2451   14.5061 C   0  0  0  0  0  0  0  0  0  0  0  0
   15.9938    5.9589   16.6496 N   0  0  0  0  0  0  0  0  0  0  0  0
   17.0209    6.5074   17.5198 C   0  0  0  0  0  0  0  0  0  0  0  0
   14.0623    6.4182   15.4958 O   0  0  0  0  0  0  0  0  0  0  0  0
   15.4309    4.6862   17.0468 C   0  0  0  0  0  0  0  0  0  0  0  0
   15.1964    6.7659   15.8318 C   0  0  0  0  0  0  0  0  0  0  0  0
   15.8458    8.0636   15.3427 C   0  0  0  0  0  0  0  0  0  0  0  0
   14.9381    8.8592   14.5322 N   0  0  0  0  0  0  0  0  0  0  0  0
   14.6188   12.1293   12.3743 C   0  0  0  0  0  0  0  0  0  0  0  0
   14.8513   11.0169   13.0688 N   0  0  0  0  0  0  0  0  0  0  0  0
   14.8894    9.8651   12.3753 C   0  0  0  0  0  0  0  0  0  0  0  0
   14.8202    9.8112   10.9615 C   0  0  0  0  0  0  0  0  0  0  0  0
   14.6754   10.9274   10.2515 N   0  0  0  0  0  0  0  0  0  0  0  0
   14.5065   12.0551   10.9861 C   0  0  0  0  0  0  0  0  0  0  0  0
   14.8009    8.5816   10.3254 C   0  0  0  0  0  0  0  0  0  0  0  0
   14.8221    7.4047   11.0741 C   0  0  0  0  0  0  0  0  0  0  0  0
   14.9042    7.4602   12.4705 C   0  0  0  0  0  0  0  0  0  0  0  0
   14.9544    8.6938   13.1271 C   0  0  0  0  0  0  0  0  0  0  0  0
  2  1  1  0
  4  3  1  0
  6  3  1  0
  7  5  2  0
  7  3  1  0
  8  7  1  0
  9  8  1  0
 10  1  1  0
 10 15  2  0
 10 11  1  0
 11 12  2  0
 12 13  1  0
 12 19  1  0
 13 16  1  0
 13 14  2  0
 14 15  1  0
 16 17  2  0
 17 18  1  0
 18 19  2  0
 19  9  1  0
M  END
>  <generation_date>  (167) 
None

>  <inchikey>  (167) 
XDUHPRMEDNEUSF-UHFFFAOYSA-N

>  <ref_mols>  (167) 
cx0839a,cx0721a

>  <tags>  (167) 
['butcher: adenine', 'pure_merges', 'fragmenstein', 'select (HA) [batch2_adenine2]', 'select (DF) [batch2_adenine2]', 'raw']

>  <ref_pdb>  (167) 
cx0300a

>  <alias>  (167) 
cx0839a-cx0721a

>  <submitter_name>  (167) 
None

>  <HIPPO ID>  (167) 
1833

>  <original ID>  (167) 
cx0839a-cx0721a

>  <method>  (167) 
None

>  <ref_url>  (167) 
None

>  <submitter_email>  (167) 
None

>  <original SMILES>  (167) 
CNc1cnc2cccc(NCC(=O)N(C)C)c2n1

$$$$
cx0839a-cx1299a
     RDKit          3D

 14 15  0  0  0  0  0  0  0  0999 V2000
   15.5376   12.3332   14.9267 C   0  0  0  0  0  0  0  0  0  0  0  0
   15.6511   13.8647   14.9918 C   0  0  0  0  0  0  0  0  0  0  0  0
   16.8256   11.6508   15.4604 C   0  0  0  0  0  0  0  0  0  0  0  0
   14.4785   11.9597   15.9299 C   0  0  0  0  0  0  0  0  0  0  0  0
   15.0959   11.7402   13.5964 C   0  0  0  0  0  0  0  0  0  0  0  0
   15.0941   10.3859   13.5230 N   0  0  0  0  0  0  0  0  0  0  0  0
   14.8981    9.8313   12.3194 C   0  0  0  0  0  0  0  0  0  0  0  0
   14.7420   10.6302   11.1620 C   0  0  0  0  0  0  0  0  0  0  0  0
   14.6307   11.9660   11.2470 N   0  0  0  0  0  0  0  0  0  0  0  0
   14.7703   12.4961   12.4802 C   0  0  0  0  0  0  0  0  0  0  0  0
   14.6158   10.0007    9.9327 C   0  0  0  0  0  0  0  0  0  0  0  0
   14.5332    8.6122    9.8408 C   0  0  0  0  0  0  0  0  0  0  0  0
   14.6549    7.8218   10.9769 C   0  0  0  0  0  0  0  0  0  0  0  0
   14.8428    8.4407   12.2120 C   0  0  0  0  0  0  0  0  0  0  0  0
  2  1  1  0
  3  1  1  0
  4  1  1  0
  5  1  1  0
  5 10  2  0
  5  6  1  0
  6  7  2  0
  7  8  1  0
  7 14  1  0
  8 11  1  0
  8  9  2  0
  9 10  1  0
 11 12  2  0
 12 13  1  0
 13 14  2  0
M  END
>  <generation_date>  (168) 
None

>  <inchikey>  (168) 
MMXSHBZOILNLPJ-UHFFFAOYSA-N

>  <ref_mols>  (168) 
cx0839a,cx1299a

>  <tags>  (168) 
['butcher: adenine', 'pure_merges', 'fragmenstein', 'select (DF) [batch2_adenine2]', 'raw']

>  <ref_pdb>  (168) 
cx0300a

>  <alias>  (168) 
cx0839a-cx1299a

>  <submitter_name>  (168) 
None

>  <HIPPO ID>  (168) 
1834

>  <original ID>  (168) 
cx0839a-cx1299a

>  <method>  (168) 
None

>  <ref_url>  (168) 
None

>  <submitter_email>  (168) 
None

>  <original SMILES>  (168) 
CC(C)(C)c1cnc2ccccc2n1

$$$$
cx0839a-cx0406a
     RDKit          3D

 19 21  0  0  0  0  0  0  0  0999 V2000
   14.5385   13.5089   13.1750 N   0  0  0  0  0  0  0  0  0  0  0  0
   14.6697   13.3692   14.6231 C   0  0  0  0  0  0  0  0  0  0  0  0
   11.5466    6.0137   13.6095 O   0  0  0  0  0  0  0  0  0  0  0  0
   12.2543    5.4923   12.4910 C   0  0  0  0  0  0  0  0  0  0  0  0
   14.6006   12.2862   12.4828 C   0  0  0  0  0  0  0  0  0  0  0  0
   14.8280   11.1600   13.1589 N   0  0  0  0  0  0  0  0  0  0  0  0
   14.8886   10.0450   12.4291 C   0  0  0  0  0  0  0  0  0  0  0  0
   14.8331   10.0063   11.0115 C   0  0  0  0  0  0  0  0  0  0  0  0
   14.6668   11.1229   10.3268 N   0  0  0  0  0  0  0  0  0  0  0  0
   14.4644   12.2210   11.0932 C   0  0  0  0  0  0  0  0  0  0  0  0
   14.8138    8.7962   10.3367 C   0  0  0  0  0  0  0  0  0  0  0  0
   14.7345    7.6089   11.0575 C   0  0  0  0  0  0  0  0  0  0  0  0
   14.7274    7.6568   12.4548 C   0  0  0  0  0  0  0  0  0  0  0  0
   14.8924    8.8744   13.1211 C   0  0  0  0  0  0  0  0  0  0  0  0
   15.7218    5.9709   13.9895 C   0  0  0  0  0  0  0  0  0  0  0  0
   14.4419    6.5136   13.3659 C   0  0  2  0  0  0  0  0  0  0  0  0
   13.7469    5.2783   12.8062 C   0  0  1  0  0  0  0  0  0  0  0  0
   14.0468    4.2529   13.9101 C   0  0  0  0  0  0  0  0  0  0  0  0
   15.1978    4.7836   14.7619 C   0  0  0  0  0  0  0  0  0  0  0  0
  2  1  1  0
  4  3  1  0
  5  1  1  0
  5 10  2  0
  5  6  1  0
  6  7  2  0
  7  8  1  0
  7 14  1  0
  8 11  1  0
  8  9  2  0
  9 10  1  0
 11 12  2  0
 12 13  1  0
 13 14  2  0
 15 16  1  0
 15 19  1  0
 16 17  1  0
 17 18  1  0
 17  4  1  1
 18 19  1  0
 16 13  1  6
M  END
>  <generation_date>  (169) 
None

>  <inchikey>  (169) 
GVJBINMCNRNOAI-RYUDHWBXSA-N

>  <ref_mols>  (169) 
cx0839a,cx0406a

>  <tags>  (169) 
['butcher: adenine', 'select (DF) [batch4_others]', 'pure_merges', 'butcher: phosphate', 'fragmenstein', 'butcher: oxyanion', 'raw']

>  <ref_pdb>  (169) 
cx0300a

>  <alias>  (169) 
cx0839a-cx0406a

>  <submitter_name>  (169) 
None

>  <HIPPO ID>  (169) 
1835

>  <original ID>  (169) 
cx0839a-cx0406a

>  <method>  (169) 
None

>  <ref_url>  (169) 
None

>  <submitter_email>  (169) 
None

>  <original SMILES>  (169) 
CNc1cnc2ccc([C@@H]3CCC[C@H]3CO)cc2n1

$$$$
cx0839a-cx1417a
     RDKit          3D

 15 16  0  0  0  0  0  0  0  0999 V2000
   14.5909   13.3108   13.3094 N   0  0  0  0  0  0  0  0  0  0  0  0
   14.7198   13.1499   14.7536 C   0  0  0  0  0  0  0  0  0  0  0  0
   16.5760    7.1295   15.4139 C   0  0  0  0  0  0  0  0  0  0  0  0
   14.9221    8.6667   14.5567 O   0  0  0  0  0  0  0  0  0  0  0  0
   15.1092    7.5109   15.3560 C   0  0  0  0  0  0  0  0  0  0  0  0
   14.6388   12.0928   12.6015 C   0  0  0  0  0  0  0  0  0  0  0  0
   14.7834   10.9380   13.2590 N   0  0  0  0  0  0  0  0  0  0  0  0
   14.8479    9.7998   12.5334 C   0  0  0  0  0  0  0  0  0  0  0  0
   14.8168    9.8205   11.1126 C   0  0  0  0  0  0  0  0  0  0  0  0
   14.7123   10.9639   10.4424 N   0  0  0  0  0  0  0  0  0  0  0  0
   14.5681   12.0689   11.2111 C   0  0  0  0  0  0  0  0  0  0  0  0
   14.8029    8.6360   10.3936 C   0  0  0  0  0  0  0  0  0  0  0  0
   14.8030    7.4123   11.0571 C   0  0  0  0  0  0  0  0  0  0  0  0
   14.8619    7.3752   12.4521 C   0  0  0  0  0  0  0  0  0  0  0  0
   14.8929    8.5657   13.1875 C   0  0  0  0  0  0  0  0  0  0  0  0
  2  1  1  0
  5  4  1  0
  5  3  1  0
  6  1  1  0
  6 11  2  0
  6  7  1  0
  7  8  2  0
  8  9  1  0
  8 15  1  0
  9 12  1  0
  9 10  2  0
 10 11  1  0
 12 13  2  0
 13 14  1  0
 14 15  2  0
 15  4  1  0
M  END
>  <generation_date>  (170) 
None

>  <inchikey>  (170) 
FESSPJKVYVFJPA-UHFFFAOYSA-N

>  <ref_mols>  (170) 
cx0839a,cx1417a

>  <tags>  (170) 
['butcher: adenine', 'pure_merges', 'fragmenstein', 'select (DF) [batch2_adenine2]', 'raw']

>  <ref_pdb>  (170) 
cx0300a

>  <alias>  (170) 
cx0839a-cx1417a

>  <submitter_name>  (170) 
None

>  <HIPPO ID>  (170) 
1837

>  <original ID>  (170) 
cx0839a-cx1417a

>  <method>  (170) 
None

>  <ref_url>  (170) 
None

>  <submitter_email>  (170) 
None

>  <original SMILES>  (170) 
CCOc1cccc2ncc(NC)nc12

$$$$
cx1402a-cx0316a
     RDKit          3D

 24 27  0  0  0  0  0  0  0  0999 V2000
   13.6750    8.5591    8.8939 C   0  0  0  0  0  0  0  0  0  0  0  0
   18.3523    4.7330   12.3213 O   0  0  0  0  0  0  0  0  0  0  0  0
   14.1941    8.1889   10.2831 C   0  0  1  0  0  0  0  0  0  0  0  0
   15.9240    3.6880   11.4672 C   0  0  0  0  0  0  0  0  0  0  0  0
   15.4970    6.1801   11.2104 N   0  0  0  0  0  0  0  0  0  0  0  0
   14.6027    6.7877   10.4650 C   0  0  0  0  0  0  0  0  0  0  0  0
   13.7457    5.9216    9.8370 O   0  0  0  0  0  0  0  0  0  0  0  0
   14.1426    4.6553   10.1619 N   0  0  0  0  0  0  0  0  0  0  0  0
   15.1632    4.8557   10.9984 C   0  0  0  0  0  0  0  0  0  0  0  0
   15.5390    3.1667   13.8370 C   0  0  0  0  0  0  0  0  0  0  0  0
   16.3252    3.7529   12.8640 N   0  0  0  0  0  0  0  0  0  0  0  0
   17.5743    4.2782   13.1512 C   0  0  0  0  0  0  0  0  0  0  0  0
   17.9838    4.2562   14.5793 C   0  0  0  0  0  0  0  0  0  0  0  0
   17.1936    3.6885   15.4971 C   0  0  0  0  0  0  0  0  0  0  0  0
   15.9356    3.1112   15.1123 C   0  0  0  0  0  0  0  0  0  0  0  0
   14.7960   11.8124   11.0362 N   0  0  0  0  0  0  0  0  0  0  0  0
   14.7367   11.7050   12.3659 C   0  0  0  0  0  0  0  0  0  0  0  0
   14.8293   10.5525   13.1315 C   0  0  0  0  0  0  0  0  0  0  0  0
   14.8771    9.3246   12.4490 C   0  0  0  0  0  0  0  0  0  0  0  0
   14.7899    9.3585   11.0407 C   0  0  0  0  0  0  0  0  0  0  0  0
   14.8404   10.6174   10.4193 C   0  0  0  0  0  0  0  0  0  0  0  0
   14.6039   12.3352   14.5038 C   0  0  0  0  0  0  0  0  0  0  0  0
   14.7801   10.9663   14.4881 C   0  0  0  0  0  0  0  0  0  0  0  0
   14.5473   12.7616   13.2044 N   0  0  0  0  0  0  0  0  0  0  0  0
  3  1  1  6
  5  6  2  0
  5  9  1  0
  6  3  1  0
  6  7  1  0
  7  8  1  0
  8  9  2  0
  9  4  1  0
 10 15  2  0
 10 11  1  0
 11  4  1  0
 11 12  1  0
 12 13  1  0
 12  2  2  0
 13 14  2  0
 14 15  1  0
 16 21  2  0
 16 17  1  0
 17 18  2  0
 17 24  1  0
 18 23  1  0
 18 19  1  0
 19 20  2  0
 20 21  1  0
 22 23  2  0
 22 24  1  0
  3 20  1  0
M  END
>  <generation_date>  (171) 
None

>  <inchikey>  (171) 
BWYZNNJKCYGIJJ-LLVKDONJSA-N

>  <ref_mols>  (171) 
cx1402a,cx0316a

>  <tags>  (171) 
['butcher: adenine', 'select (DF) [batch4_others]', 'pure_merges', 'fragmenstein', 'butcher: oxyanion', 'raw']

>  <ref_pdb>  (171) 
cx0300a

>  <alias>  (171) 
cx1402a-cx0316a

>  <submitter_name>  (171) 
None

>  <HIPPO ID>  (171) 
1861

>  <original ID>  (171) 
cx1402a-cx0316a

>  <method>  (171) 
None

>  <ref_url>  (171) 
None

>  <submitter_email>  (171) 
None

>  <original SMILES>  (171) 
C[C@H](c1cnc2[nH]ccc2c1)c1nc(Cn2ccccc2=O)no1

$$$$
cx0441a-cx0317a
     RDKit          3D

 18 19  0  0  0  0  0  0  0  0999 V2000
   15.2881    3.6979   11.7296 N   0  0  0  0  0  0  0  0  0  0  0  0
   16.5448    4.0037   12.2038 C   0  0  0  0  0  0  0  0  0  0  0  0
   17.3630    4.6790   11.5924 O   0  0  0  0  0  0  0  0  0  0  0  0
   15.7521    1.9699   16.6496 N   0  0  0  0  0  0  0  0  0  0  0  0
   14.8302    3.8965   14.7084 C   0  0  0  0  0  0  0  0  0  0  0  0
   14.9437    3.9222   10.3589 C   0  0  0  0  0  0  0  0  0  0  0  0
   13.8181    4.7634   10.3212 O   0  0  0  0  0  0  0  0  0  0  0  0
   16.9643    3.3655   13.4780 C   0  0  0  0  0  0  0  0  0  0  0  0
   18.2659    2.8823   13.5029 C   0  0  0  0  0  0  0  0  0  0  0  0
   18.6930    2.1910   14.6109 C   0  0  0  0  0  0  0  0  0  0  0  0
   17.8978    1.9184   15.6547 N   0  0  0  0  0  0  0  0  0  0  0  0
   16.6321    2.3751   15.6300 C   0  0  0  0  0  0  0  0  0  0  0  0
   16.1482    3.1955   14.5961 C   0  0  0  0  0  0  0  0  0  0  0  0
   15.3818    1.0188   18.8988 C   0  0  0  0  0  0  0  0  0  0  0  0
   16.3277    1.0890   17.6811 C   0  0  0  0  0  0  0  0  0  0  0  0
   16.4861   -0.3742   17.2179 C   0  0  0  0  0  0  0  0  0  0  0  0
   16.0400   -1.1743   18.3993 C   0  0  0  0  0  0  0  0  0  0  0  0
   15.4279   -0.4154   19.3116 C   0  0  0  0  0  0  0  0  0  0  0  0
  2  1  1  0
  3  2  2  0
  7  6  1  0
  6  1  1  0
  8  2  1  0
  8 13  2  0
  8  9  1  0
  9 10  2  0
 10 11  1  0
 11 12  2  0
 12 13  1  0
 12  4  1  0
 14 15  1  0
 14 18  1  0
 15 16  1  0
 15  4  1  0
 16 17  1  0
 17 18  2  0
  5 13  1  0
M  END
>  <generation_date>  (172) 
None

>  <inchikey>  (172) 
YIIMVUSFSKUYCA-UHFFFAOYSA-N

>  <ref_mols>  (172) 
cx0317a,cx0441a

>  <tags>  (172) 
['select (DF) [batch3_oxyanion]', 'pure_merges', 'fragmenstein', 'butcher: oxyanion', 'select (HA) [batch3_oxyanion]', 'raw']

>  <ref_pdb>  (172) 
cx0300a

>  <alias>  (172) 
cx0441a-cx0317a

>  <submitter_name>  (172) 
None

>  <HIPPO ID>  (172) 
1869

>  <original ID>  (172) 
cx0441a-cx0317a

>  <method>  (172) 
None

>  <ref_url>  (172) 
None

>  <submitter_email>  (172) 
None

>  <original SMILES>  (172) 
Cc1c(C(=O)NCO)ccnc1NC1CC=CC1

$$$$
cx0441a-cx0760a
     RDKit          3D

 16 18  0  0  0  0  0  0  0  0999 V2000
   15.2492    3.8306   12.1132 N   0  0  0  0  0  0  0  0  0  0  0  0
   16.5417    3.9949   12.5085 C   0  0  0  0  0  0  0  0  0  0  0  0
   17.3213    4.6815   11.8581 O   0  0  0  0  0  0  0  0  0  0  0  0
   16.9705    3.2287   13.7188 C   0  0  0  0  0  0  0  0  0  0  0  0
   18.3330    2.7267   13.7664 C   0  0  0  0  0  0  0  0  0  0  0  0
   18.7173    1.9273   14.7730 C   0  0  0  0  0  0  0  0  0  0  0  0
   17.8556    1.5548   15.7868 N   0  0  0  0  0  0  0  0  0  0  0  0
   16.5920    2.1793   15.8987 C   0  0  0  0  0  0  0  0  0  0  0  0
   16.1533    3.0107   14.7705 C   0  0  0  0  0  0  0  0  0  0  0  0
   15.2827    0.2530   18.8624 C   0  0  0  0  0  0  0  0  0  0  0  0
   16.2855    1.0434   18.0216 C   0  0  1  0  0  0  0  0  0  0  0  0
   17.0873   -0.0639   17.3128 C   0  0  2  0  0  0  0  0  0  0  0  0
   17.1789   -1.0680   18.4170 C   0  0  0  0  0  0  0  0  0  0  0  0
   16.1344   -0.9260   19.2519 C   0  0  0  0  0  0  0  0  0  0  0  0
   18.2880    0.5478   16.7373 N   0  0  0  0  0  0  0  0  0  0  0  0
   15.8109    2.0016   16.9800 C   0  0  0  0  0  0  0  0  0  0  0  0
  2  1  1  0
  3  2  2  0
  4  2  1  0
  4  9  2  0
  4  5  1  0
  5  6  2  0
  6  7  1  0
  7  8  1  0
  8  9  1  0
 11 10  1  6
 10 14  1  0
 11 12  1  0
 12 13  1  0
 13 14  2  0
  8 16  2  0
  7 15  1  0
 12 15  1  1
 16 11  1  0
M  END
>  <generation_date>  (173) 
None

>  <inchikey>  (173) 
ICJREYJAEFVKGV-KCJUWKMLSA-N

>  <ref_mols>  (173) 
cx0760a,cx0441a

>  <tags>  (173) 
['pure_merges', 'fragmenstein', 'butcher: oxyanion', 'select (HA) [batch3_oxyanion]', 'raw']

>  <ref_pdb>  (173) 
cx0300a

>  <alias>  (173) 
cx0441a-cx0760a

>  <submitter_name>  (173) 
None

>  <HIPPO ID>  (173) 
1871

>  <original ID>  (173) 
cx0441a-cx0760a

>  <method>  (173) 
None

>  <ref_url>  (173) 
None

>  <submitter_email>  (173) 
None

>  <original SMILES>  (173) 
NC(=O)C1=CC2=C[C@H]3CC=C[C@@H]3NN2C=C1

$$$$
cx0441a-cx0543a
     RDKit          3D

 17 19  0  0  0  0  0  0  0  0999 V2000
   15.1578    3.8706   11.9617 N   0  0  0  0  0  0  0  0  0  0  0  0
   16.4609    4.0141   12.3460 C   0  0  0  0  0  0  0  0  0  0  0  0
   17.2416    4.6900   11.6888 O   0  0  0  0  0  0  0  0  0  0  0  0
   15.5630    1.6736   16.6090 N   0  0  0  0  0  0  0  0  0  0  0  0
   18.3352    0.8273   16.7595 C   0  0  0  0  0  0  0  0  0  0  0  0
   19.5225    0.6841   17.0185 O   0  0  0  0  0  0  0  0  0  0  0  0
   16.9117    3.2860   13.5601 C   0  0  0  0  0  0  0  0  0  0  0  0
   18.2724    2.9896   13.6713 C   0  0  0  0  0  0  0  0  0  0  0  0
   18.7651    2.2490   14.7476 C   0  0  0  0  0  0  0  0  0  0  0  0
   17.8819    1.8007   15.7243 C   0  0  0  0  0  0  0  0  0  0  0  0
   16.5168    2.1427   15.6637 C   0  0  0  0  0  0  0  0  0  0  0  0
   16.0385    2.8798   14.5691 C   0  0  0  0  0  0  0  0  0  0  0  0
   15.2304    0.2840   18.6957 C   0  0  0  0  0  0  0  0  0  0  0  0
   16.1814    1.0496   17.7750 C   0  0  1  0  0  0  0  0  0  0  0  0
   17.2044    0.0026   17.3489 C   0  0  2  0  0  0  0  0  0  0  0  0
   17.3110   -0.8063   18.6006 C   0  0  0  0  0  0  0  0  0  0  0  0
   16.1870   -0.6890   19.3269 C   0  0  0  0  0  0  0  0  0  0  0  0
  2  1  1  0
  3  2  2  0
  6  5  2  0
  7  2  1  0
  7 12  1  0
  7  8  2  0
  8  9  1  0
  9 10  2  0
 10 11  1  0
 11 12  2  0
 11  4  1  0
 14 13  1  1
 13 17  1  0
 14 15  1  0
 14  4  1  0
 15 16  1  1
 16 17  2  0
  5 10  1  0
  5 15  1  0
M  END
>  <generation_date>  (174) 
None

>  <inchikey>  (174) 
IHQIPDSFIYHILS-WPRPVWTQSA-N

>  <ref_mols>  (174) 
cx0543a,cx0441a

>  <tags>  (174) 
['select (DF) [batch3_oxyanion]', 'pure_merges', 'fragmenstein', 'butcher: oxyanion', 'select (HA) [batch3_oxyanion]', 'raw']

>  <ref_pdb>  (174) 
cx0300a

>  <alias>  (174) 
cx0441a-cx0543a

>  <submitter_name>  (174) 
None

>  <HIPPO ID>  (174) 
1876

>  <original ID>  (174) 
cx0441a-cx0543a

>  <method>  (174) 
None

>  <ref_url>  (174) 
None

>  <submitter_email>  (174) 
None

>  <original SMILES>  (174) 
NC(=O)c1ccc2c(c1)N[C@H]1CC=C[C@@H]1C2=O

$$$$
cx0441a-cx0436a
     RDKit          3D

 21 24  0  0  0  0  0  0  0  0999 V2000
   15.0537    3.7766   12.0624 N   0  0  0  0  0  0  0  0  0  0  0  0
   16.3721    3.9591   12.3657 C   0  0  0  0  0  0  0  0  0  0  0  0
   17.0749    4.6885   11.6747 O   0  0  0  0  0  0  0  0  0  0  0  0
   16.9341    3.2196   13.5296 C   0  0  0  0  0  0  0  0  0  0  0  0
   18.3184    3.0954   13.5834 C   0  0  0  0  0  0  0  0  0  0  0  0
   18.9390    2.4087   14.6276 C   0  0  0  0  0  0  0  0  0  0  0  0
   18.1939    1.8440   15.6560 C   0  0  0  0  0  0  0  0  0  0  0  0
   16.8042    1.9365   15.5940 C   0  0  0  0  0  0  0  0  0  0  0  0
   16.1723    2.6400   14.5439 C   0  0  0  0  0  0  0  0  0  0  0  0
   15.9117    0.2114   18.9488 C   0  0  0  0  0  0  0  0  0  0  0  0
   16.7355    0.3377   17.6454 C   0  0  2  0  0  0  0  0  0  0  0  0
   16.7772   -1.1363   17.1767 C   0  0  0  0  0  0  0  0  0  0  0  0
   16.8413   -2.0037   18.4312 C   0  0  1  0  0  0  0  0  0  0  0  0
   18.8802    1.0701   16.7492 C   0  0  0  0  0  0  0  0  0  0  0  0
   18.0559    0.9010   17.9489 N   0  0  0  0  0  0  0  0  0  0  0  0
   15.9841    1.2371   16.6384 C   0  0  0  0  0  0  0  0  0  0  0  0
   18.2400   -2.5393   18.7281 C   0  0  0  0  0  0  0  0  0  0  0  0
   18.2658   -3.2817   20.0591 C   0  0  0  0  0  0  0  0  0  0  0  0
   17.6061   -2.5074   21.2029 C   0  0  0  0  0  0  0  0  0  0  0  0
   17.1278   -1.1103   20.8071 C   0  0  0  0  0  0  0  0  0  0  0  0
   16.2416   -1.1590   19.5620 C   0  0  1  0  0  0  0  0  0  0  0  0
  2  1  1  0
  3  2  2  0
  4  2  1  0
  4  9  2  0
  4  5  1  0
  5  6  2  0
  6  7  1  0
  7  8  2  0
  8  9  1  0
 11 10  1  1
 11 12  1  0
 13 12  1  6
 14 15  1  0
 17 18  1  0
 18 19  1  0
 19 20  1  0
  8 16  1  0
  7 14  1  0
 11 15  1  0
 11 16  1  0
 13 17  1  0
 21 10  1  6
 21 13  1  0
 21 20  1  0
M  END
>  <generation_date>  (175) 
None

>  <inchikey>  (175) 
XADHKYPYAQGCKZ-UOIKSKOESA-N

>  <ref_mols>  (175) 
cx0436a,cx0441a

>  <tags>  (175) 
['select (DF) [batch3_oxyanion]', 'pure_merges', 'fragmenstein', 'butcher: oxyanion', 'raw']

>  <ref_pdb>  (175) 
cx0300a

>  <alias>  (175) 
cx0441a-cx0436a

>  <submitter_name>  (175) 
None

>  <HIPPO ID>  (175) 
1881

>  <original ID>  (175) 
cx0441a-cx0436a

>  <method>  (175) 
None

>  <ref_url>  (175) 
None

>  <submitter_email>  (175) 
None

>  <original SMILES>  (175) 
NC(=O)c1ccc2c(c1)C[C@@]1(C[C@H]3CCCC[C@H]3C1)NC2

$$$$
cx0441a-cx1183a
     RDKit          3D

 16 18  0  0  0  0  0  0  0  0999 V2000
   15.6798    3.9507   12.1583 N   0  0  0  0  0  0  0  0  0  0  0  0
   16.9697    3.9229   12.5905 C   0  0  0  0  0  0  0  0  0  0  0  0
   17.8707    4.2218   11.8115 O   0  0  0  0  0  0  0  0  0  0  0  0
   15.3884    2.0989   17.0177 N   0  0  0  0  0  0  0  0  0  0  0  0
   17.2556    3.5849   14.0528 C   0  0  2  0  0  0  0  0  0  0  0  0
   18.3321    2.4916   14.1090 C   0  0  0  0  0  0  0  0  0  0  0  0
   18.7075    2.0123   15.5134 C   0  0  0  0  0  0  0  0  0  0  0  0
   17.5007    1.7324   16.2378 N   0  0  0  0  0  0  0  0  0  0  0  0
   16.4754    2.7655   16.2709 C   0  0  1  0  0  0  0  0  0  0  0  0
   16.0402    3.1335   14.8586 C   0  0  0  0  0  0  0  0  0  0  0  0
   15.2339   -0.0184   18.4953 C   0  0  0  0  0  0  0  0  0  0  0  0
   15.9310    0.9248   17.5770 C   0  0  0  0  0  0  0  0  0  0  0  0
   17.1649    0.6990   17.0982 C   0  0  0  0  0  0  0  0  0  0  0  0
   17.3338   -1.3313   18.2656 C   0  0  0  0  0  0  0  0  0  0  0  0
   16.1141   -1.1969   18.8127 C   0  0  0  0  0  0  0  0  0  0  0  0
   17.9086   -0.4208   17.3895 O   0  0  0  0  0  0  0  0  0  0  0  0
  2  1  1  0
  3  2  2  0
  5  2  1  6
  5 10  1  0
  5  6  1  0
  6  7  1  0
  8  9  1  0
  9 10  1  6
  9  4  1  0
 11 12  1  0
 11 15  1  0
 12 13  2  0
 12  4  1  0
 14 15  2  0
  8 13  1  0
 14 16  1  0
  8  7  1  0
 16 13  1  0
M  END
>  <generation_date>  (176) 
None

>  <inchikey>  (176) 
WSUNYLIUERFGKX-APPZFPTMSA-N

>  <ref_mols>  (176) 
cx0441a,cx1183a

>  <tags>  (176) 
['pure_merges', 'fragmenstein', 'butcher: oxyanion', 'select (HA) [batch3_oxyanion]', 'raw']

>  <ref_pdb>  (176) 
cx0300a

>  <alias>  (176) 
cx0441a-cx1183a

>  <submitter_name>  (176) 
None

>  <HIPPO ID>  (176) 
1899

>  <original ID>  (176) 
cx0441a-cx1183a

>  <method>  (176) 
None

>  <ref_url>  (176) 
None

>  <submitter_email>  (176) 
None

>  <original SMILES>  (176) 
NC(=O)[C@@H]1CCN2C3=C(CC=CO3)N[C@@H]2C1

$$$$
cx1135a-cx0632a
     RDKit          3D

 21 23  0  0  0  0  0  0  0  0999 V2000
   17.2078    5.1988   11.4076 O   0  0  0  0  0  0  0  0  0  0  0  0
   17.2790    2.4520   13.5481 N   0  0  0  0  0  0  0  0  0  0  0  0
   17.7130    3.6038   12.9269 N   0  0  0  0  0  0  0  0  0  0  0  0
   16.8237    4.3273   12.1717 C   0  0  0  0  0  0  0  0  0  0  0  0
   15.3693    3.9843   12.3506 C   0  0  0  0  0  0  0  0  0  0  0  0
   15.1294    3.7171   13.8265 C   0  0  0  0  0  0  0  0  0  0  0  0
   16.0477    2.5915   14.3377 C   0  0  2  0  0  0  0  0  0  0  0  0
   16.5225    3.8234   16.5744 N   0  0  0  0  0  0  0  0  0  0  0  0
   17.5168    4.6912   15.9759 C   0  0  0  0  0  0  0  0  0  0  0  0
   16.2233    2.5669   15.8821 C   0  0  2  0  0  0  0  0  0  0  0  0
   16.9796   -2.2778   18.5657 C   0  0  0  0  0  0  0  0  0  0  0  0
   17.1694   -3.4718   19.2672 C   0  0  0  0  0  0  0  0  0  0  0  0
   18.4083   -4.1101   19.2582 C   0  0  0  0  0  0  0  0  0  0  0  0
   19.4713   -3.5519   18.5538 C   0  0  0  0  0  0  0  0  0  0  0  0
   19.2989   -2.3461   17.8720 C   0  0  0  0  0  0  0  0  0  0  0  0
   18.0528   -1.6989   17.8787 C   0  0  0  0  0  0  0  0  0  0  0  0
   17.1333    1.4699   16.3804 C   0  0  0  0  0  0  0  0  0  0  0  0
   18.5409    1.3843   16.3375 C   0  0  0  0  0  0  0  0  0  0  0  0
   19.0152    0.2357   16.8071 N   0  0  0  0  0  0  0  0  0  0  0  0
   17.9195   -0.4422   17.2301 N   0  0  0  0  0  0  0  0  0  0  0  0
   16.7676    0.2771   16.9801 C   0  0  0  0  0  0  0  0  0  0  0  0
  2  7  1  0
  2  3  1  0
  3  4  1  0
  4  1  2  0
  4  5  1  0
  5  6  1  0
  7  6  1  1
  9  8  1  0
 10  8  1  6
 11 16  2  0
 11 12  1  0
 12 13  2  0
 13 14  1  0
 14 15  2  0
 15 16  1  0
 16 20  1  0
 17 10  1  0
 17 18  1  0
 17 21  2  0
 18 19  2  0
 19 20  1  0
 20 21  1  0
  7 10  1  0
M  END
>  <generation_date>  (177) 
None

>  <inchikey>  (177) 
KWJZRRUYKMBOSC-UKRRQHHQSA-N

>  <ref_mols>  (177) 
cx0632a,cx1135a

>  <tags>  (177) 
['pure_merges', 'fragmenstein', 'butcher: oxyanion', 'select (HA) [batch3_oxyanion]', 'raw']

>  <ref_pdb>  (177) 
cx0300a

>  <alias>  (177) 
cx1135a-cx0632a

>  <submitter_name>  (177) 
None

>  <HIPPO ID>  (177) 
1907

>  <original ID>  (177) 
cx1135a-cx0632a

>  <method>  (177) 
None

>  <ref_url>  (177) 
None

>  <submitter_email>  (177) 
None

>  <original SMILES>  (177) 
CN[C@H](c1cnn(-c2ccccc2)c1)[C@H]1CCC(=O)NN1

$$$$
cx1135a-cx0824a
     RDKit          3D

 24 26  0  0  0  0  0  0  0  0999 V2000
   17.5051    4.9099   11.5988 O   0  0  0  0  0  0  0  0  0  0  0  0
   16.1188    1.7269   15.7093 N   0  0  0  0  0  0  0  0  0  0  0  0
   18.3391    1.3119   16.2564 O   0  0  0  0  0  0  0  0  0  0  0  0
   17.1406    1.0708   16.3895 C   0  0  0  0  0  0  0  0  0  0  0  0
   14.7919    1.0012   18.0660 F   0  0  0  0  0  0  0  0  0  0  0  0
   17.2486    3.7304   14.9252 C   0  0  0  0  0  0  0  0  0  0  0  0
   17.6092    4.4883   13.8281 N   0  0  0  0  0  0  0  0  0  0  0  0
   17.0806    4.3227   12.5795 C   0  0  0  0  0  0  0  0  0  0  0  0
   15.8883    3.4648   12.5052 C   0  0  0  0  0  0  0  0  0  0  0  0
   15.5769    2.7202   13.5730 C   0  0  0  0  0  0  0  0  0  0  0  0
   16.3759    2.7128   14.7729 C   0  0  0  0  0  0  0  0  0  0  0  0
   15.6625   -0.0186   18.1083 C   0  0  0  0  0  0  0  0  0  0  0  0
   16.7789   -0.0525   17.2796 C   0  0  0  0  0  0  0  0  0  0  0  0
   17.6723   -1.1338   17.3691 C   0  0  0  0  0  0  0  0  0  0  0  0
   17.4506   -2.1594   18.2871 C   0  0  0  0  0  0  0  0  0  0  0  0
   16.3449   -2.1011   19.1310 C   0  0  0  0  0  0  0  0  0  0  0  0
   15.4480   -1.0333   19.0381 C   0  0  0  0  0  0  0  0  0  0  0  0
   17.6680    4.2731   16.2658 C   0  0  0  0  0  0  0  0  0  0  0  0
   16.0892    4.1484   18.2450 C   0  0  0  0  0  0  0  0  0  0  0  0
   16.4487    4.7527   17.0399 C   0  0  0  0  0  0  0  0  0  0  0  0
   15.6215    5.7644   16.5315 C   0  0  0  0  0  0  0  0  0  0  0  0
   14.4729    6.1019   17.2298 C   0  0  0  0  0  0  0  0  0  0  0  0
   14.0954    5.5100   18.3837 N   0  0  0  0  0  0  0  0  0  0  0  0
   14.9236    4.5603   18.8721 C   0  0  0  0  0  0  0  0  0  0  0  0
  4  2  1  0
  4  3  2  0
  6 11  2  0
  6  7  1  0
  7  8  1  0
  8  1  2  0
  8  9  1  0
  9 10  2  0
 10 11  1  0
 12 17  2  0
 12 13  1  0
 12  5  1  0
 13 14  2  0
 13  4  1  0
 14 15  1  0
 15 16  2  0
 16 17  1  0
 11  2  1  0
 19 24  2  0
 19 20  1  0
 20 21  2  0
 20 18  1  0
 21 22  1  0
 22 23  2  0
 23 24  1  0
  6 18  1  0
M  END
>  <generation_date>  (178) 
None

>  <inchikey>  (178) 
TXDDOQQHSYQXIF-UHFFFAOYSA-N

>  <ref_mols>  (178) 
cx0824a,cx1135a

>  <tags>  (178) 
['select (DF) [batch3_oxyanion]', 'pure_merges', 'fragmenstein', 'butcher: oxyanion', 'raw']

>  <ref_pdb>  (178) 
cx0300a

>  <alias>  (178) 
cx1135a-cx0824a

>  <submitter_name>  (178) 
None

>  <HIPPO ID>  (178) 
1908

>  <original ID>  (178) 
cx1135a-cx0824a

>  <method>  (178) 
None

>  <ref_url>  (178) 
None

>  <submitter_email>  (178) 
None

>  <original SMILES>  (178) 
O=C(Nc1ccc(=O)[nH]c1Cc1ccncc1)c1ccccc1F

$$$$
cx1135a-cx0305a
     RDKit          3D

 18 19  0  0  0  0  0  0  0  0999 V2000
   18.5779    4.0442   11.6423 O   0  0  0  0  0  0  0  0  0  0  0  0
   16.7319    3.0444   14.4848 C   0  0  0  0  0  0  0  0  0  0  0  0
   17.7696    3.3129   13.6200 N   0  0  0  0  0  0  0  0  0  0  0  0
   17.6153    3.7991   12.3521 C   0  0  0  0  0  0  0  0  0  0  0  0
   16.2295    4.0193   11.8933 C   0  0  0  0  0  0  0  0  0  0  0  0
   15.2220    3.7380   12.7277 C   0  0  0  0  0  0  0  0  0  0  0  0
   15.4736    3.2413   14.0611 C   0  0  0  0  0  0  0  0  0  0  0  0
   17.0259    0.3751   16.6684 N   0  0  0  0  0  0  0  0  0  0  0  0
   17.1207    2.6469   15.8692 C   0  0  0  0  0  0  0  0  0  0  0  0
   15.2031    1.7669   17.0277 O   0  0  0  0  0  0  0  0  0  0  0  0
   16.3106    1.5496   16.5500 C   0  0  0  0  0  0  0  0  0  0  0  0
   18.8266   -1.9154   16.6506 C   0  0  0  0  0  0  0  0  0  0  0  0
   16.7981   -0.6674   17.5911 C   0  0  0  0  0  0  0  0  0  0  0  0
   17.7004   -1.7472   17.6313 C   0  0  0  0  0  0  0  0  0  0  0  0
   17.5467   -2.7145   18.6303 C   0  0  0  0  0  0  0  0  0  0  0  0
   16.5238   -2.5741   19.5469 C   0  0  0  0  0  0  0  0  0  0  0  0
   15.6277   -1.5707   19.5200 N   0  0  0  0  0  0  0  0  0  0  0  0
   15.7758   -0.6479   18.5400 C   0  0  0  0  0  0  0  0  0  0  0  0
  2  7  2  0
  2  3  1  0
  3  4  1  0
  4  1  2  0
  4  5  1  0
  5  6  2  0
  6  7  1  0
 11 10  2  0
 11  9  1  0
 11  8  1  0
 13  8  1  0
 13 18  1  0
 13 14  2  0
 14 15  1  0
 14 12  1  0
 15 16  2  0
 16 17  1  0
 17 18  2  0
  2  9  1  0
M  END
>  <generation_date>  (179) 
None

>  <inchikey>  (179) 
KIULBMGWDSJTMM-UHFFFAOYSA-N

>  <ref_mols>  (179) 
cx0305a,cx1135a

>  <tags>  (179) 
['select (DF) [batch3_oxyanion]', 'pure_merges', 'fragmenstein', 'butcher: oxyanion', 'raw']

>  <ref_pdb>  (179) 
cx0300a

>  <alias>  (179) 
cx1135a-cx0305a

>  <submitter_name>  (179) 
None

>  <HIPPO ID>  (179) 
1909

>  <original ID>  (179) 
cx1135a-cx0305a

>  <method>  (179) 
None

>  <ref_url>  (179) 
None

>  <submitter_email>  (179) 
None

>  <original SMILES>  (179) 
Cc1ccncc1NC(=O)Cc1cccc(=O)[nH]1

$$$$
cx0553a-cx0316a
     RDKit          3D

 28 30  0  0  0  0  0  0  0  0999 V2000
   14.5857   11.0963   14.3852 N   0  0  0  0  0  0  0  0  0  0  0  0
   14.7378   12.4318   14.9746 C   0  0  0  0  0  0  0  0  0  0  0  0
   17.2701   10.5400   15.4999 O   0  0  0  0  0  0  0  0  0  0  0  0
   14.8999    9.9860   15.3078 C   0  0  0  0  0  0  0  0  0  0  0  0
   16.3979    9.6795   15.4102 C   0  0  0  0  0  0  0  0  0  0  0  0
   15.0317    9.2799    9.6033 C   0  0  0  0  0  0  0  0  0  0  0  0
   14.9963    8.5197   12.6705 C   0  0  0  0  0  0  0  0  0  0  0  0
   16.7326    8.3522   15.4470 N   0  0  0  0  0  0  0  0  0  0  0  0
   15.1788    7.4699   13.1335 N   0  0  0  0  0  0  0  0  0  0  0  0
   17.9739    4.0090   11.6127 O   0  0  0  0  0  0  0  0  0  0  0  0
   13.8304    8.3677    9.3540 C   0  0  0  0  0  0  0  0  0  0  0  0
   15.1842    3.9416   11.1420 C   0  0  0  0  0  0  0  0  0  0  0  0
   14.6625   10.9658   13.0073 C   0  0  0  0  0  0  0  0  0  0  0  0
   14.8496    9.8545   12.1840 C   0  0  0  0  0  0  0  0  0  0  0  0
   14.8570   10.1934   10.7828 C   0  0  0  0  0  0  0  0  0  0  0  0
   14.6602   11.4782   10.5183 N   0  0  0  0  0  0  0  0  0  0  0  0
   14.4274   12.3034   11.9144 S   0  0  0  0  0  0  0  0  0  0  0  0
   14.9464    6.3326   10.3528 N   0  0  0  0  0  0  0  0  0  0  0  0
   13.8956    7.0773   10.0970 C   0  0  0  0  0  0  0  0  0  0  0  0
   12.7305    6.4700   10.4413 O   0  0  0  0  0  0  0  0  0  0  0  0
   13.0600    5.2197   10.9574 N   0  0  0  0  0  0  0  0  0  0  0  0
   14.3937    5.1762   10.8580 C   0  0  0  0  0  0  0  0  0  0  0  0
   15.0203    3.8640   13.6031 C   0  0  0  0  0  0  0  0  0  0  0  0
   15.8140    3.9393   12.4709 N   0  0  0  0  0  0  0  0  0  0  0  0
   17.2001    3.8866   12.5551 C   0  0  0  0  0  0  0  0  0  0  0  0
   17.7697    3.6354   13.9064 C   0  0  0  0  0  0  0  0  0  0  0  0
   16.9690    3.5275   14.9710 C   0  0  0  0  0  0  0  0  0  0  0  0
   15.5491    3.6740   14.8169 C   0  0  0  0  0  0  0  0  0  0  0  0
  2  1  1  0
  4  1  1  0
  5  4  1  0
  5  3  2  0
  8  5  1  0
  9  7  3  0
 11  6  1  0
 13  1  1  0
 13 14  2  0
 13 17  1  0
 14 15  1  0
 14  7  1  0
 15  6  1  0
 15 16  2  0
 16 17  1  0
 18 19  2  0
 18 22  1  0
 19 11  1  0
 19 20  1  0
 20 21  1  0
 21 22  2  0
 22 12  1  0
 23 28  2  0
 23 24  1  0
 24 12  1  0
 24 25  1  0
 25 26  1  0
 25 10  2  0
 26 27  2  0
 27 28  1  0
M  END
>  <generation_date>  (180) 
None

>  <inchikey>  (180) 
GPZJEEYGFUVZKG-UHFFFAOYSA-N

>  <ref_mols>  (180) 
cx0553a,cx0316a

>  <tags>  (180) 
['butcher: adenine', 'select (DF) [batch4_others]', 'pure_merges', 'fragmenstein', 'butcher: oxyanion', 'raw']

>  <ref_pdb>  (180) 
cx0300a

>  <alias>  (180) 
cx0553a-cx0316a

>  <submitter_name>  (180) 
None

>  <HIPPO ID>  (180) 
1941

>  <original ID>  (180) 
cx0553a-cx0316a

>  <method>  (180) 
None

>  <ref_url>  (180) 
None

>  <submitter_email>  (180) 
None

>  <original SMILES>  (180) 
CN(CC(N)=O)c1snc(CCc2nc(Cn3ccccc3=O)no2)c1C#N

$$$$
cx0294a-cx0317a
     RDKit          3D

 22 23  0  0  0  0  0  0  0  0999 V2000
   15.9817    3.1545   15.9142 C   0  0  0  0  0  0  0  0  0  0  0  0
   16.5140    1.8340   15.3515 C   0  0  0  0  0  0  0  0  0  0  0  0
   16.8702    0.1469   17.9506 C   0  0  0  0  0  0  0  0  0  0  0  0
   16.8959   -1.3173   17.8448 C   0  0  0  0  0  0  0  0  0  0  0  0
   15.3923    4.0108   14.9188 O   0  0  0  0  0  0  0  0  0  0  0  0
   15.0356    2.8674   16.8434 F   0  0  0  0  0  0  0  0  0  0  0  0
   16.9097    3.8665   16.5963 F   0  0  0  0  0  0  0  0  0  0  0  0
   16.9119   -2.4757   17.7707 N   0  0  0  0  0  0  0  0  0  0  0  0
   17.9330    4.0241   11.2014 O   0  0  0  0  0  0  0  0  0  0  0  0
   15.0041    4.7354   11.8735 C   0  0  0  0  0  0  0  0  0  0  0  0
   14.9030    3.9699   10.5579 C   0  0  0  0  0  0  0  0  0  0  0  0
   13.9938    4.6768    9.7158 O   0  0  0  0  0  0  0  0  0  0  0  0
   17.7719    1.4323   15.9432 N   0  0  0  0  0  0  0  0  0  0  0  0
   19.0031    1.6232   15.3751 C   0  0  0  0  0  0  0  0  0  0  0  0
   19.8940    1.0574   16.2494 C   0  0  0  0  0  0  0  0  0  0  0  0
   19.2417    0.5529   17.3348 N   0  0  0  0  0  0  0  0  0  0  0  0
   17.9546    0.7130   17.1000 C   0  0  0  0  0  0  0  0  0  0  0  0
   17.7002    4.4372   14.3987 N   0  0  0  0  0  0  0  0  0  0  0  0
   16.3860    4.3662   14.0284 C   0  0  0  0  0  0  0  0  0  0  0  0
   16.1978    4.5537   12.7244 C   0  0  0  0  0  0  0  0  0  0  0  0
   17.5873    4.3778   12.3056 C   0  0  0  0  0  0  0  0  0  0  0  0
   18.4145    4.5011   13.3867 N   0  0  0  0  0  0  0  0  0  0  0  0
  2  1  1  0
  4  3  1  0
  1  5  1  0
  6  1  1  0
  7  1  1  0
  8  4  3  0
 11 10  1  0
 12 11  1  0
 13  2  1  0
 13 14  1  0
 13 17  1  0
 14 15  2  0
 15 16  1  0
 16 17  2  0
 17  3  1  0
 18 19  1  0
 18 22  2  0
 19 20  2  0
 20 21  1  0
 20 10  1  0
 21  9  2  0
 21 22  1  0
  5 19  1  0
M  END
>  <generation_date>  (181) 
None

>  <inchikey>  (181) 
FOLIGXJSWKWUJI-UHFFFAOYSA-N

>  <ref_mols>  (181) 
cx0317a,cx0294a

>  <tags>  (181) 
['select (DF) [batch3_oxyanion]', 'pure_merges', 'fragmenstein', 'butcher: oxyanion', 'select (HA) [batch3_oxyanion]', 'select (JA) [batch3_oxyanion]', 'raw']

>  <ref_pdb>  (181) 
cx0300a

>  <alias>  (181) 
cx0294a-cx0317a

>  <submitter_name>  (181) 
None

>  <HIPPO ID>  (181) 
1946

>  <original ID>  (181) 
cx0294a-cx0317a

>  <method>  (181) 
None

>  <ref_url>  (181) 
None

>  <submitter_email>  (181) 
None

>  <original SMILES>  (181) 
N#CCc1nccn1CC(F)(F)OC1=C(CCO)C(=O)N=N1

$$$$
cx0294a-cx0585a
     RDKit          3D

 20 21  0  0  0  0  0  0  0  0999 V2000
   15.8187    3.7131   15.3956 C   0  0  0  0  0  0  0  0  0  0  0  0
   16.3003    2.4338   14.7627 C   0  0  0  0  0  0  0  0  0  0  0  0
   16.3140    0.6087   17.2630 C   0  0  0  0  0  0  0  0  0  0  0  0
   14.6690    4.1258   14.8100 F   0  0  0  0  0  0  0  0  0  0  0  0
   15.5850    3.6131   16.7188 F   0  0  0  0  0  0  0  0  0  0  0  0
   16.7290    4.7004   15.2225 F   0  0  0  0  0  0  0  0  0  0  0  0
   15.1970    1.1048   17.1156 O   0  0  0  0  0  0  0  0  0  0  0  0
   15.0855   -0.5567   21.7046 F   0  0  0  0  0  0  0  0  0  0  0  0
   17.4676    1.8844   15.4196 N   0  0  0  0  0  0  0  0  0  0  0  0
   18.7581    2.0358   14.9893 C   0  0  0  0  0  0  0  0  0  0  0  0
   19.5045    1.2297   15.8110 C   0  0  0  0  0  0  0  0  0  0  0  0
   18.7106    0.6241   16.7455 N   0  0  0  0  0  0  0  0  0  0  0  0
   17.4746    1.0279   16.5002 C   0  0  0  0  0  0  0  0  0  0  0  0
   15.7610   -0.8881   20.5991 C   0  0  0  0  0  0  0  0  0  0  0  0
   15.7172   -0.0452   19.5107 C   0  0  0  0  0  0  0  0  0  0  0  0
   16.4270   -0.3798   18.3477 C   0  0  0  0  0  0  0  0  0  0  0  0
   17.1665   -1.5754   18.2718 C   0  0  0  0  0  0  0  0  0  0  0  0
   17.1314   -2.4385   19.3744 C   0  0  0  0  0  0  0  0  0  0  0  0
   16.4735   -2.0754   20.5485 C   0  0  0  0  0  0  0  0  0  0  0  0
   17.7610   -2.0560   17.0888 N   0  0  0  0  0  0  0  0  0  0  0  0
  2  1  1  0
  1  4  1  0
  5  1  1  0
  6  1  1  0
  7  3  2  0
  9  2  1  0
  9 10  1  0
  9 13  1  0
 10 11  2  0
 11 12  1  0
 12 13  2  0
 13  3  1  0
 14 19  2  0
 14 15  1  0
 14  8  1  0
 15 16  2  0
 16 17  1  0
 17 18  2  0
 18 19  1  0
  3 16  1  0
 17 20  1  0
M  END
>  <generation_date>  (182) 
None

>  <inchikey>  (182) 
RADFRWGEZZVGMR-UHFFFAOYSA-N

>  <ref_mols>  (182) 
cx0585a,cx0294a

>  <tags>  (182) 
['pure_merges', 'fragmenstein', 'butcher: oxyanion', 'select (HA) [batch3_oxyanion]', 'select (JA) [batch3_oxyanion]', 'raw']

>  <ref_pdb>  (182) 
cx0300a

>  <alias>  (182) 
cx0294a-cx0585a

>  <submitter_name>  (182) 
None

>  <HIPPO ID>  (182) 
1954

>  <original ID>  (182) 
cx0294a-cx0585a

>  <method>  (182) 
None

>  <ref_url>  (182) 
None

>  <submitter_email>  (182) 
None

>  <original SMILES>  (182) 
Nc1ccc(F)cc1C(=O)c1nccn1CC(F)(F)F

$$$$
cx0294a-cx0505a
     RDKit          3D

 21 23  0  0  0  0  0  0  0  0999 V2000
   16.0331    3.5558   15.5521 C   0  0  0  0  0  0  0  0  0  0  0  0
   16.5645    2.3347   14.8397 C   0  0  0  0  0  0  0  0  0  0  0  0
   14.7628    3.8086   15.1294 F   0  0  0  0  0  0  0  0  0  0  0  0
   16.7568    4.6513   15.1869 F   0  0  0  0  0  0  0  0  0  0  0  0
   17.9044   -1.8407   17.1442 N   0  0  0  0  0  0  0  0  0  0  0  0
   19.7662    0.0994   17.7302 O   0  0  0  0  0  0  0  0  0  0  0  0
   13.8416    1.2122   19.2845 F   0  0  0  0  0  0  0  0  0  0  0  0
   17.7866    1.8982   15.4925 N   0  0  0  0  0  0  0  0  0  0  0  0
   18.9566    2.6317   15.4479 C   0  0  0  0  0  0  0  0  0  0  0  0
   19.7635    2.1733   16.4661 C   0  0  0  0  0  0  0  0  0  0  0  0
   19.1976    0.9636   16.8798 C   0  0  0  0  0  0  0  0  0  0  0  0
   17.8631    0.9761   16.5175 C   0  0  0  0  0  0  0  0  0  0  0  0
   16.7456    0.3604   17.2585 C   0  0  0  0  0  0  0  0  0  0  0  0
   15.6878    1.1136   17.8074 C   0  0  0  0  0  0  0  0  0  0  0  0
   15.2519    2.3801   17.5526 O   0  0  0  0  0  0  0  0  0  0  0  0
   16.0690    3.4337   17.0730 C   0  0  0  0  0  0  0  0  0  0  0  0
   16.8405   -1.0247   17.6019 C   0  0  0  0  0  0  0  0  0  0  0  0
   16.0370   -1.5571   18.6151 C   0  0  0  0  0  0  0  0  0  0  0  0
   15.0445   -0.7878   19.1916 C   0  0  0  0  0  0  0  0  0  0  0  0
   14.8561    0.5077   18.7567 C   0  0  0  0  0  0  0  0  0  0  0  0
   20.8988    2.8358   17.1383 C   0  0  0  0  0  0  0  0  0  0  0  0
  2  1  1  0
  1  3  1  0
  4  1  1  0
  8  2  1  0
  8  9  1  0
  8 12  1  0
  9 10  2  0
 10 11  1  0
 11 12  2  0
 13 14  2  0
 13 17  1  0
 14 20  1  0
 14 15  1  0
 15 16  1  0
 17 18  2  0
 18 19  1  0
 19 20  2  0
 20  7  1  0
 12 13  1  0
 17  5  1  0
 11  6  1  0
  1 16  1  0
 10 21  1  0
M  END
>  <generation_date>  (183) 
None

>  <inchikey>  (183) 
IREBZKCAAUBPGU-UHFFFAOYSA-N

>  <ref_mols>  (183) 
cx0294a,cx0505a

>  <tags>  (183) 
['pure_merges', 'fragmenstein', 'butcher: oxyanion', 'select (HA) [batch3_oxyanion]', 'raw']

>  <ref_pdb>  (183) 
cx0300a

>  <alias>  (183) 
cx0294a-cx0505a

>  <submitter_name>  (183) 
None

>  <HIPPO ID>  (183) 
1964

>  <original ID>  (183) 
cx0294a-cx0505a

>  <method>  (183) 
None

>  <ref_url>  (183) 
None

>  <submitter_email>  (183) 
None

>  <original SMILES>  (183) 
Cc1cn2c(c1O)-c1c(N)ccc(F)c1OCC(F)(F)C2

$$$$
cx0294a-cx1183a
     RDKit          3D

 17 19  0  0  0  0  0  0  0  0999 V2000
   15.6703    3.9482   15.3808 C   0  0  0  0  0  0  0  0  0  0  0  0
   16.2546    2.8404   14.5387 C   0  0  0  0  0  0  0  0  0  0  0  0
   14.5771    4.4667   14.7729 F   0  0  0  0  0  0  0  0  0  0  0  0
   15.2773    3.5353   16.6060 F   0  0  0  0  0  0  0  0  0  0  0  0
   16.5615    4.9487   15.5490 F   0  0  0  0  0  0  0  0  0  0  0  0
   16.5377   -1.7137   18.3198 C   0  0  0  0  0  0  0  0  0  0  0  0
   17.1593   -2.6365   18.7784 C   0  0  0  0  0  0  0  0  0  0  0  0
   18.6433   -2.7426   18.6522 C   0  0  0  0  0  0  0  0  0  0  0  0
   18.6258    2.0941   15.0328 C   0  0  0  0  0  0  0  0  0  0  0  0
   19.5293    1.2316   15.6640 C   0  0  0  0  0  0  0  0  0  0  0  0
   19.0183    0.2793   16.5501 C   0  0  0  0  0  0  0  0  0  0  0  0
   17.6497    0.2202   16.8618 C   0  0  0  0  0  0  0  0  0  0  0  0
   17.4941   -0.8905   17.6793 C   0  0  0  0  0  0  0  0  0  0  0  0
   18.7199   -1.4833   17.8582 C   0  0  0  0  0  0  0  0  0  0  0  0
   19.6596   -0.7779   17.1903 N   0  0  0  0  0  0  0  0  0  0  0  0
   17.2574    2.0260   15.3038 C   0  0  0  0  0  0  0  0  0  0  0  0
   16.7721    1.1264   16.2638 C   0  0  0  0  0  0  0  0  0  0  0  0
  2  1  1  0
  1  3  1  0
  4  1  1  0
  5  1  1  0
  7  6  3  0
  8  7  1  0
  9 10  2  0
 10 11  1  0
 11 12  2  0
 13 14  2  0
 14  8  1  0
 14 15  1  0
 16 17  2  0
  9 16  1  0
 12 13  1  0
 12 17  1  0
 11 15  1  0
 13  6  1  0
  2 16  1  0
M  END
>  <generation_date>  (184) 
None

>  <inchikey>  (184) 
VWXBKNSUYFZSHF-UHFFFAOYSA-N

>  <ref_mols>  (184) 
cx0294a,cx1183a

>  <tags>  (184) 
['select (DF) [batch3_oxyanion]', 'pure_merges', 'fragmenstein', 'butcher: oxyanion', 'select (HA) [batch3_oxyanion]', 'select (JA) [batch3_oxyanion]', 'raw']

>  <ref_pdb>  (184) 
cx0300a

>  <alias>  (184) 
cx0294a-cx1183a

>  <submitter_name>  (184) 
None

>  <HIPPO ID>  (184) 
1965

>  <original ID>  (184) 
cx0294a-cx1183a

>  <method>  (184) 
None

>  <ref_url>  (184) 
None

>  <submitter_email>  (184) 
None

>  <original SMILES>  (184) 
FC(F)(F)Cc1ccc2[nH]c3c(c2c1)C#CC3

$$$$
cx0300a-cx1372a
     RDKit          3D

 23 25  0  0  0  0  0  0  0  0999 V2000
   15.4568    5.4924   14.2981 N   0  0  0  0  0  0  0  0  0  0  0  0
   14.8236    6.2276   15.2567 C   0  0  0  0  0  0  0  0  0  0  0  0
   14.2670    5.7337   16.2303 O   0  0  0  0  0  0  0  0  0  0  0  0
   18.6031    3.7853   11.7064 O   0  0  0  0  0  0  0  0  0  0  0  0
   14.2186   12.3360   10.6608 N   0  0  0  0  0  0  0  0  0  0  0  0
   14.7751   11.1086   10.4220 C   0  0  0  0  0  0  0  0  0  0  0  0
   15.1951   10.7868    9.3171 O   0  0  0  0  0  0  0  0  0  0  0  0
   14.6359    8.2057   10.0050 N   0  0  0  0  0  0  0  0  0  0  0  0
   16.5084    3.3075   14.6930 C   0  0  0  0  0  0  0  0  0  0  0  0
   17.7873    3.6853   13.9549 C   0  0  0  0  0  0  0  0  0  0  0  0
   17.6348    3.8236   12.4549 C   0  0  0  0  0  0  0  0  0  0  0  0
   16.3998    4.1156   11.9508 N   0  0  0  0  0  0  0  0  0  0  0  0
   15.1829    3.7602   12.6487 C   0  0  0  0  0  0  0  0  0  0  0  0
   15.3001    4.0587   14.1408 C   0  0  2  0  0  0  0  0  0  0  0  0
   14.9636    8.5493   16.0801 C   0  0  0  0  0  0  0  0  0  0  0  0
   14.8921    7.6655   15.0217 C   0  0  0  0  0  0  0  0  0  0  0  0
   14.8682    8.3602   13.7416 C   0  0  0  0  0  0  0  0  0  0  0  0
   14.9603    9.7420   13.9266 C   0  0  0  0  0  0  0  0  0  0  0  0
   15.1120   10.1633   15.5813 S   0  0  0  0  0  0  0  0  0  0  0  0
   14.8280   10.1469   11.5467 C   0  0  0  0  0  0  0  0  0  0  0  0
   14.7960    8.7619   11.2983 C   0  0  0  0  0  0  0  0  0  0  0  0
   14.7406    7.8892   12.3988 C   0  0  0  0  0  0  0  0  0  0  0  0
   14.9222   10.6461   12.8535 C   0  0  0  0  0  0  0  0  0  0  0  0
  2  1  1  0
  3  2  2  0
  6  5  1  0
  7  6  2  0
  9 14  1  0
  9 10  1  0
 10 11  1  0
 11 12  1  0
 11  4  2  0
 12 13  1  0
 13 14  1  0
 14  1  1  6
 15 16  2  0
 15 19  1  0
 16  2  1  0
 16 17  1  0
 17 18  2  0
 18 19  1  0
 20  6  1  0
 20 23  2  0
 20 21  1  0
 21 22  2  0
 21  8  1  0
 18 23  1  0
 17 22  1  0
M  END
>  <generation_date>  (185) 
None

>  <inchikey>  (185) 
GAXUXENYSQWSMK-SSDOTTSWSA-N

>  <ref_mols>  (185) 
cx1372a,cx0300a

>  <tags>  (185) 
['butcher: adenine', 'select (DF) [batch4_others]', 'pure_merges', 'fragmenstein', 'butcher: oxyanion', 'raw']

>  <ref_pdb>  (185) 
cx0300a

>  <alias>  (185) 
cx0300a-cx1372a

>  <submitter_name>  (185) 
None

>  <HIPPO ID>  (185) 
1967

>  <original ID>  (185) 
cx0300a-cx1372a

>  <method>  (185) 
None

>  <ref_url>  (185) 
None

>  <submitter_email>  (185) 
None

>  <original SMILES>  (185) 
NC(=O)c1cc2scc(C(=O)N[C@@H]3CCC(=O)NC3)c2cc1N

$$$$
cx0300a-cx0732a
     RDKit          3D

 24 26  0  0  0  0  0  0  0  0999 V2000
   15.1780    5.3540   14.5077 N   0  0  0  0  0  0  0  0  0  0  0  0
   14.9151    6.2194   15.5340 C   0  0  0  0  0  0  0  0  0  0  0  0
   14.7462    5.8657   16.6939 O   0  0  0  0  0  0  0  0  0  0  0  0
   18.6393    4.1420   12.1083 O   0  0  0  0  0  0  0  0  0  0  0  0
   17.2124    2.2039   15.5955 N   0  0  0  0  0  0  0  0  0  0  0  0
   15.3417    1.9699   16.9055 O   0  0  0  0  0  0  0  0  0  0  0  0
   18.5334    1.7255   15.2128 C   0  0  0  0  0  0  0  0  0  0  0  0
   16.4055    1.4916   16.5160 C   0  0  0  0  0  0  0  0  0  0  0  0
   16.8728    3.6524   15.2955 C   0  0  1  0  0  0  0  0  0  0  0  0
   17.8855    4.3755   14.3783 C   0  0  0  0  0  0  0  0  0  0  0  0
   17.7093    4.0693   12.9019 C   0  0  0  0  0  0  0  0  0  0  0  0
   16.4515    3.8185   12.4456 N   0  0  0  0  0  0  0  0  0  0  0  0
   15.4198    3.2794   13.3042 C   0  0  0  0  0  0  0  0  0  0  0  0
   15.4560    3.9202   14.6816 C   0  0  2  0  0  0  0  0  0  0  0  0
   14.7854    8.6961   15.9618 C   0  0  0  0  0  0  0  0  0  0  0  0
   14.9039    7.6199   15.1014 C   0  0  0  0  0  0  0  0  0  0  0  0
   15.0502    7.9681   13.7524 N   0  0  0  0  0  0  0  0  0  0  0  0
   15.0033    9.2776   13.6334 C   0  0  0  0  0  0  0  0  0  0  0  0
   14.8749   10.1674   15.0887 S   0  0  0  0  0  0  0  0  0  0  0  0
   16.7923    0.1762   17.0371 C   0  0  0  0  0  0  0  0  0  0  0  0
   15.8810   -0.8011   17.4028 C   0  0  0  0  0  0  0  0  0  0  0  0
   16.5878   -1.8634   17.8752 N   0  0  0  0  0  0  0  0  0  0  0  0
   17.9133   -1.6649   17.8540 N   0  0  0  0  0  0  0  0  0  0  0  0
   18.0298   -0.4146   17.3929 C   0  0  0  0  0  0  0  0  0  0  0  0
  2  1  1  0
  3  2  2  0
  7  5  1  0
  8  6  2  0
  8  5  1  0
  9 14  1  0
  9 10  1  0
 10 11  1  0
 11 12  1  0
 11  4  2  0
 12 13  1  0
 13 14  1  0
 14  1  1  6
 15 16  2  0
 15 19  1  0
 16  2  1  0
 16 17  1  0
 17 18  2  0
 18 19  1  0
 20  8  1  0
 20 21  2  0
 20 24  1  0
 21 22  1  0
 22 23  1  0
 23 24  2  0
  9  5  1  6
M  END
>  <generation_date>  (186) 
None

>  <inchikey>  (186) 
QXTJKJMNVYQZDF-ONGXEEELSA-N

>  <ref_mols>  (186) 
cx0732a,cx0300a

>  <tags>  (186) 
['butcher: adenine', 'pure_merges', 'fragmenstein', 'select (HA) [batch4_others]', 'butcher: oxyanion', 'raw']

>  <ref_pdb>  (186) 
cx0300a

>  <alias>  (186) 
cx0300a-cx0732a

>  <submitter_name>  (186) 
None

>  <HIPPO ID>  (186) 
1968

>  <original ID>  (186) 
cx0300a-cx0732a

>  <method>  (186) 
None

>  <ref_url>  (186) 
None

>  <submitter_email>  (186) 
None

>  <original SMILES>  (186) 
CN(C(=O)c1cn[nH]c1)[C@H]1CC(=O)NC[C@@H]1NC(=O)c1cscn1

$$$$
cx0300a-cx0620a
     RDKit          3D

 29 33  0  0  0  0  0  0  0  0999 V2000
   15.0574    5.7461   14.0022 N   0  0  0  0  0  0  0  0  0  0  0  0
   14.7307    6.4520   15.1276 C   0  0  0  0  0  0  0  0  0  0  0  0
   14.3772    5.9492   16.1888 O   0  0  0  0  0  0  0  0  0  0  0  0
   18.5717    3.8611   11.9034 O   0  0  0  0  0  0  0  0  0  0  0  0
   17.0837    2.5240   18.1115 C   0  0  0  0  0  0  0  0  0  0  0  0
   16.1619    3.6729   14.5901 C   0  0  0  0  0  0  0  0  0  0  0  0
   17.3698    3.4881   13.9104 C   0  0  0  0  0  0  0  0  0  0  0  0
   17.4930    3.8646   12.4763 C   0  0  0  0  0  0  0  0  0  0  0  0
   16.3405    4.2276   11.8185 N   0  0  0  0  0  0  0  0  0  0  0  0
   15.0448    3.9166   12.3903 C   0  0  0  0  0  0  0  0  0  0  0  0
   14.9916    4.3050   13.8772 C   0  0  2  0  0  0  0  0  0  0  0  0
   14.7831    8.8489   15.9082 C   0  0  0  0  0  0  0  0  0  0  0  0
   14.8501    7.8953   14.9106 C   0  0  0  0  0  0  0  0  0  0  0  0
   15.0440    8.4131   13.6234 N   0  0  0  0  0  0  0  0  0  0  0  0
   15.0804    9.7264   13.6792 C   0  0  0  0  0  0  0  0  0  0  0  0
   14.9895   10.4150   15.2418 S   0  0  0  0  0  0  0  0  0  0  0  0
   18.4650    2.9581   14.5873 C   0  0  0  0  0  0  0  0  0  0  0  0
   18.3851    2.6702   15.9493 C   0  0  0  0  0  0  0  0  0  0  0  0
   17.1840    2.8395   16.6431 C   0  0  0  0  0  0  0  0  0  0  0  0
   16.0746    3.3244   15.9456 C   0  0  0  0  0  0  0  0  0  0  0  0
   18.6228   -1.7887   17.8930 C   0  0  0  0  0  0  0  0  0  0  0  0
   17.7249   -2.6787   18.4730 C   0  0  0  0  0  0  0  0  0  0  0  0
   16.4849   -2.2327   18.9392 C   0  0  0  0  0  0  0  0  0  0  0  0
   16.1493   -0.8761   18.8208 C   0  0  0  0  0  0  0  0  0  0  0  0
   17.0766    0.0014   18.2642 C   0  0  0  0  0  0  0  0  0  0  0  0
   18.3212   -0.4279   17.7867 C   0  0  0  0  0  0  0  0  0  0  0  0
   15.2402    1.0507   18.9335 C   0  0  0  0  0  0  0  0  0  0  0  0
   16.4716    1.2319   18.3647 N   0  0  0  0  0  0  0  0  0  0  0  0
   15.0113   -0.2116   19.2103 N   0  0  0  0  0  0  0  0  0  0  0  0
  2  1  1  0
  3  2  2  0
  6 11  1  0
  6  7  2  0
  7  8  1  0
  8  9  1  0
  8  4  2  0
  9 10  1  0
 10 11  1  0
 11  1  1  6
 12 13  2  0
 12 16  1  0
 13  2  1  0
 13 14  1  0
 14 15  2  0
 15 16  1  0
 17 18  2  0
 18 19  1  0
 19 20  2  0
 19  5  1  0
 21 26  2  0
 21 22  1  0
 22 23  2  0
 23 24  1  0
 24 25  2  0
 24 29  1  0
 25 26  1  0
 25 28  1  0
 27 28  1  0
 27 29  2  0
 28  5  1  0
  7 17  1  0
  6 20  1  0
M  END
>  <generation_date>  (187) 
None

>  <inchikey>  (187) 
BUYREVNXKWTVBD-KRWDZBQOSA-N

>  <ref_mols>  (187) 
cx0620a,cx0300a

>  <tags>  (187) 
['butcher: adenine', 'select (DF) [batch4_others]', 'pure_merges', 'fragmenstein', 'butcher: oxyanion', 'raw']

>  <ref_pdb>  (187) 
cx0300a

>  <alias>  (187) 
cx0300a-cx0620a

>  <submitter_name>  (187) 
None

>  <HIPPO ID>  (187) 
1971

>  <original ID>  (187) 
cx0300a-cx0620a

>  <method>  (187) 
None

>  <ref_url>  (187) 
None

>  <submitter_email>  (187) 
None

>  <original SMILES>  (187) 
O=C(N[C@H]1CNC(=O)c2ccc(Cn3cnc4ccccc43)cc21)c1cscn1

$$$$
cx0300a-cx1305a
     RDKit          3D

 24 27  0  0  0  0  0  0  0  0999 V2000
   15.4786    5.7420   14.1716 N   0  0  0  0  0  0  0  0  0  0  0  0
   15.2585    6.2410   15.4268 C   0  0  0  0  0  0  0  0  0  0  0  0
   14.8523    5.5389   16.3533 O   0  0  0  0  0  0  0  0  0  0  0  0
   18.6293    3.7568   11.6687 O   0  0  0  0  0  0  0  0  0  0  0  0
   15.4640   11.1963   15.7459 O   0  0  0  0  0  0  0  0  0  0  0  0
   16.2451    3.4081   14.4166 C   0  0  0  0  0  0  0  0  0  0  0  0
   17.6181    3.7117   13.8348 C   0  0  0  0  0  0  0  0  0  0  0  0
   17.6120    3.9001   12.3358 C   0  0  0  0  0  0  0  0  0  0  0  0
   16.4681    4.3379   11.7335 N   0  0  0  0  0  0  0  0  0  0  0  0
   15.1602    4.1491   12.3205 C   0  0  0  0  0  0  0  0  0  0  0  0
   15.1873    4.3527   13.8347 C   0  0  2  0  0  0  0  0  0  0  0  0
   14.3583    8.3887   16.2425 C   0  0  0  0  0  0  0  0  0  0  0  0
   15.5780    7.7346   15.6278 C   0  0  2  0  0  0  0  0  0  0  0  0
   16.0311    8.4238   14.3769 N   0  0  0  0  0  0  0  0  0  0  0  0
   15.0526    9.4515   13.9329 C   0  0  1  0  0  0  0  0  0  0  0  0
   13.5276    8.9873   14.7837 S   0  0  0  0  0  0  0  0  0  0  0  0
   15.4653   10.9391   14.3382 C   0  0  1  0  0  0  0  0  0  0  0  0
   14.8848    9.4717   12.4212 C   0  0  0  0  0  0  0  0  0  0  0  0
   14.7592   10.5600   11.6703 C   0  0  0  0  0  0  0  0  0  0  0  0
   14.5643   11.9504   12.1434 C   0  0  0  0  0  0  0  0  0  0  0  0
   14.6102   12.0379   13.6696 C   0  0  0  0  0  0  0  0  0  0  0  0
   14.8406    8.8738   10.3027 C   0  0  0  0  0  0  0  0  0  0  0  0
   14.7672   10.3106   10.3095 O   0  0  0  0  0  0  0  0  0  0  0  0
   14.9385    8.3110   11.6425 O   0  0  0  0  0  0  0  0  0  0  0  0
  2  1  1  0
  3  2  2  0
  6 11  1  0
  6  7  1  0
  7  8  1  0
  8  9  1  0
  8  4  2  0
  9 10  1  0
 10 11  1  0
 11  1  1  6
 12 13  1  0
 12 16  1  0
 13  2  1  6
 13 14  1  0
 15 14  1  6
 15 16  1  0
 17  5  1  1
 17 21  1  0
 18 19  2  0
 18 24  1  0
 19 20  1  0
 19 23  1  0
 20 21  1  0
 22 23  1  0
 22 24  1  0
 15 17  1  0
 15 18  1  0
M  END
>  <generation_date>  (188) 
None

>  <inchikey>  (188) 
FFFPFWCFZPTWPU-NTDWFJSYSA-N

>  <ref_mols>  (188) 
cx1305a,cx0300a

>  <tags>  (188) 
['butcher: adenine', 'select (DF) [batch4_others]', 'pure_merges', 'fragmenstein', 'butcher: oxyanion', 'raw']

>  <ref_pdb>  (188) 
cx0300a

>  <alias>  (188) 
cx0300a-cx1305a

>  <submitter_name>  (188) 
None

>  <HIPPO ID>  (188) 
1975

>  <original ID>  (188) 
cx0300a-cx1305a

>  <method>  (188) 
None

>  <ref_url>  (188) 
None

>  <submitter_email>  (188) 
None

>  <original SMILES>  (188) 
O=C1CC[C@@H](NC(=O)[C@@H]2CS[C@@]3(N2)C2=C(CC[C@H]3O)OCO2)CN1

$$$$
cx0300a-cx1440a
     RDKit          3D

 21 23  0  0  0  0  0  0  0  0999 V2000
   15.5151    5.6682   14.2646 N   0  0  0  0  0  0  0  0  0  0  0  0
   15.5495    6.2759   15.4991 C   0  0  0  0  0  0  0  0  0  0  0  0
   15.4261    5.6485   16.5478 O   0  0  0  0  0  0  0  0  0  0  0  0
   18.5705    3.7819   11.6512 O   0  0  0  0  0  0  0  0  0  0  0  0
   14.4198   12.5047   12.1115 N   0  0  0  0  0  0  0  0  0  0  0  0
   16.4883    3.4140   14.6462 C   0  0  0  0  0  0  0  0  0  0  0  0
   17.7702    3.7702   13.9057 C   0  0  0  0  0  0  0  0  0  0  0  0
   17.6089    3.8695   12.4053 C   0  0  0  0  0  0  0  0  0  0  0  0
   16.3757    4.1651   11.8957 N   0  0  0  0  0  0  0  0  0  0  0  0
   15.1585    3.8892   12.6275 C   0  0  0  0  0  0  0  0  0  0  0  0
   15.3052    4.2289   14.1138 C   0  0  2  0  0  0  0  0  0  0  0  0
   14.4395    8.4311   16.0213 C   0  0  0  0  0  0  0  0  0  0  0  0
   15.7068    7.8218   15.4751 C   0  0  2  0  0  0  0  0  0  0  0  0
   16.0009    8.3835   14.1157 N   0  0  0  0  0  0  0  0  0  0  0  0
   14.7943    8.8868   13.4145 C   0  0  2  0  0  0  0  0  0  0  0  0
   13.4244    8.3061   14.5529 S   0  0  0  0  0  0  0  0  0  0  0  0
   15.0080   11.1793   12.1667 C   0  0  2  0  0  0  0  0  0  0  0  0
   14.5510   10.6034   10.9521 N   0  0  0  0  0  0  0  0  0  0  0  0
   14.8485    9.2066   10.7464 C   0  0  0  0  0  0  0  0  0  0  0  0
   14.6821    8.2731   11.9729 C   0  0  0  0  0  0  0  0  0  0  0  0
   14.6905   10.4349   13.4533 C   0  0  0  0  0  0  0  0  0  0  0  0
  2  1  1  0
  3  2  2  0
  6 11  1  0
  6  7  1  0
  7  8  1  0
  8  9  1  0
  8  4  2  0
  9 10  1  0
 10 11  1  0
 11  1  1  6
 12 13  1  0
 12 16  1  0
 13  2  1  6
 13 14  1  0
 14 15  1  0
 15 16  1  0
 17  5  1  1
 17 21  1  0
 17 18  1  0
 18 19  1  0
 19 20  1  0
 15 20  1  6
 15 21  1  0
M  END
>  <generation_date>  (189) 
None

>  <inchikey>  (189) 
YEBFHGFWUANWQR-COMAGPEQSA-N

>  <ref_mols>  (189) 
cx1440a,cx0300a

>  <tags>  (189) 
['butcher: adenine', 'pure_merges', 'fragmenstein', 'select (HA) [batch4_others]', 'butcher: oxyanion', 'raw']

>  <ref_pdb>  (189) 
cx0300a

>  <alias>  (189) 
cx0300a-cx1440a

>  <submitter_name>  (189) 
None

>  <HIPPO ID>  (189) 
1984

>  <original ID>  (189) 
cx0300a-cx1440a

>  <method>  (189) 
None

>  <ref_url>  (189) 
None

>  <submitter_email>  (189) 
None

>  <original SMILES>  (189) 
N[C@H]1C[C@@]2(CCN1)N[C@H](C(=O)N[C@@H]1CCC(=O)NC1)CS2

$$$$
cx0300a-cx0892a
     RDKit          3D

 28 31  0  0  0  0  0  0  0  0999 V2000
   15.2822    5.6385   13.9905 N   0  0  0  0  0  0  0  0  0  0  0  0
   14.2577    6.2882   14.7926 C   0  0  1  0  0  0  0  0  0  0  0  0
   14.1869    5.5497   16.0058 O   0  0  0  0  0  0  0  0  0  0  0  0
   18.7133    3.8182   11.8111 O   0  0  0  0  0  0  0  0  0  0  0  0
   15.0022    9.0831    9.5694 C   0  0  0  0  0  0  0  0  0  0  0  0
   14.9647    7.5886   12.0529 O   0  0  0  0  0  0  0  0  0  0  0  0
   14.9435    8.6646   12.6482 C   0  0  0  0  0  0  0  0  0  0  0  0
   16.2283    3.4243   14.4730 C   0  0  0  0  0  0  0  0  0  0  0  0
   17.6000    3.8139   13.9328 C   0  0  0  0  0  0  0  0  0  0  0  0
   17.6574    3.9027   12.4252 C   0  0  0  0  0  0  0  0  0  0  0  0
   16.5131    4.1763   11.7410 N   0  0  0  0  0  0  0  0  0  0  0  0
   15.2132    3.8590   12.2718 C   0  0  0  0  0  0  0  0  0  0  0  0
   15.1005    4.1935   13.7679 C   0  0  2  0  0  0  0  0  0  0  0  0
   14.9430    8.1748   16.3815 C   0  0  0  0  0  0  0  0  0  0  0  0
   14.7723    7.6971   15.0867 C   0  0  0  0  0  0  0  0  0  0  0  0
   15.1035    8.7356   14.1151 C   0  0  0  0  0  0  0  0  0  0  0  0
   15.6837    9.8135   14.7663 C   0  0  0  0  0  0  0  0  0  0  0  0
   15.5947    9.7371   16.4557 S   0  0  0  0  0  0  0  0  0  0  0  0
   14.8703   10.0907   10.5897 N   0  0  0  0  0  0  0  0  0  0  0  0
   14.8011    9.9371   11.9577 C   0  0  0  0  0  0  0  0  0  0  0  0
   14.4524   11.2009   12.4220 C   0  0  0  0  0  0  0  0  0  0  0  0
   14.3709   12.0054   11.2881 C   0  0  0  0  0  0  0  0  0  0  0  0
   14.7133   11.3530   10.1872 N   0  0  0  0  0  0  0  0  0  0  0  0
   12.3669    5.9401   12.9594 C   0  0  0  0  0  0  0  0  0  0  0  0
   12.8507    6.3151   14.2052 C   0  0  0  0  0  0  0  0  0  0  0  0
   11.5487    6.9521   15.1545 S   0  0  0  0  0  0  0  0  0  0  0  0
   10.3849    6.5860   13.9645 C   0  0  0  0  0  0  0  0  0  0  0  0
   10.9520    6.0478   12.8367 C   0  0  0  0  0  0  0  0  0  0  0  0
  2  1  1  0
  2  3  1  1
  7  6  2  0
  8 13  1  0
  8  9  1  0
  9 10  1  0
 10 11  1  0
 10  4  2  0
 11 12  1  0
 12 13  1  0
 13  1  1  6
 14 15  2  0
 14 18  1  0
 15  2  1  0
 15 16  1  0
 16 17  2  0
 17 18  1  0
 19  5  1  0
 19 20  1  0
 19 23  1  0
 20 21  2  0
 20  7  1  0
 21 22  1  0
 22 23  2  0
 24 25  2  0
 24 28  1  0
 25 26  1  0
 26 27  1  0
 27 28  2  0
 16  7  1  0
  2 25  1  0
M  END
>  <generation_date>  (190) 
None

>  <inchikey>  (190) 
AHQYDSUDIYYGCL-CWTRNNRKSA-N

>  <ref_mols>  (190) 
cx0892a,cx0300a

>  <tags>  (190) 
['butcher: adenine', 'pure_merges', 'butcher: phosphate', 'fragmenstein', 'select (HA) [batch4_others]', 'butcher: oxyanion', 'raw']

>  <ref_pdb>  (190) 
cx0300a

>  <alias>  (190) 
cx0300a-cx0892a

>  <submitter_name>  (190) 
None

>  <HIPPO ID>  (190) 
1985

>  <original ID>  (190) 
cx0300a-cx0892a

>  <method>  (190) 
None

>  <ref_url>  (190) 
None

>  <submitter_email>  (190) 
None

>  <original SMILES>  (190) 
Cn1nccc1C(=O)c1cscc1[C@](O)(N[C@@H]1CCC(=O)NC1)c1cccs1

$$$$
cx0300a-cx0353a
     RDKit          3D

 22 24  0  0  0  0  0  0  0  0999 V2000
   15.2064    5.8492   13.9714 N   0  0  0  0  0  0  0  0  0  0  0  0
   15.0832    6.7079   15.0477 C   0  0  0  0  0  0  0  0  0  0  0  0
   14.7046    6.3372   16.1528 O   0  0  0  0  0  0  0  0  0  0  0  0
   18.5125    3.8005   11.8127 O   0  0  0  0  0  0  0  0  0  0  0  0
   14.9833    9.4885   11.5148 N   0  0  0  0  0  0  0  0  0  0  0  0
   15.0497    9.7051   10.0638 C   0  0  0  0  0  0  0  0  0  0  0  0
   16.3355    3.7989   14.7820 C   0  0  0  0  0  0  0  0  0  0  0  0
   17.6247    4.0886   14.0195 C   0  0  0  0  0  0  0  0  0  0  0  0
   17.5188    3.9370   12.5168 C   0  0  0  0  0  0  0  0  0  0  0  0
   16.2868    4.0793   11.9412 N   0  0  0  0  0  0  0  0  0  0  0  0
   15.0648    3.8021   12.6709 C   0  0  0  0  0  0  0  0  0  0  0  0
   15.1135    4.3994   14.0768 C   0  0  2  0  0  0  0  0  0  0  0  0
   16.2926    8.7961   15.8093 C   0  0  0  0  0  0  0  0  0  0  0  0
   15.5344    8.1320   14.6894 C   0  0  2  0  0  0  0  0  0  0  0  0
   14.4185    9.0513   14.3635 N   0  0  0  0  0  0  0  0  0  0  0  0
   15.0328   10.3730   14.0223 C   0  0  1  0  0  0  0  0  0  0  0  0
   16.5945   10.4159   15.0651 S   0  0  0  0  0  0  0  0  0  0  0  0
   15.1209   10.6628   12.3998 C   0  0  2  0  0  0  0  0  0  0  0  0
   14.1536   11.6364   11.9476 N   0  0  0  0  0  0  0  0  0  0  0  0
   14.3352   12.9362   12.5644 C   0  0  0  0  0  0  0  0  0  0  0  0
   14.6383   12.9240   14.0569 C   0  0  0  0  0  0  0  0  0  0  0  0
   14.3199   11.5702   14.6689 C   0  0  0  0  0  0  0  0  0  0  0  0
  2  1  1  0
  3  2  2  0
  6  5  1  0
  7 12  1  0
  7  8  1  0
  8  9  1  0
  9 10  1  0
  9  4  2  0
 10 11  1  0
 11 12  1  0
 12  1  1  6
 13 14  1  0
 13 17  1  0
 14  2  1  1
 14 15  1  0
 15 16  1  0
 16 17  1  0
 18  5  1  6
 18 19  1  0
 19 20  1  0
 20 21  1  0
 21 22  1  0
 16 18  1  0
 16 22  1  1
M  END
>  <generation_date>  (191) 
None

>  <inchikey>  (191) 
HKECIZNSIKPBMT-OAACRXHESA-N

>  <ref_mols>  (191) 
cx0353a,cx0300a

>  <tags>  (191) 
['butcher: adenine', 'select (DF) [batch4_others]', 'pure_merges', 'fragmenstein', 'select (HA) [batch4_others]', 'butcher: oxyanion', 'raw']

>  <ref_pdb>  (191) 
cx0300a

>  <alias>  (191) 
cx0300a-cx0353a

>  <submitter_name>  (191) 
None

>  <HIPPO ID>  (191) 
1987

>  <original ID>  (191) 
cx0300a-cx0353a

>  <method>  (191) 
None

>  <ref_url>  (191) 
None

>  <submitter_email>  (191) 
None

>  <original SMILES>  (191) 
CN[C@H]1NCCC[C@@]12N[C@H](C(=O)N[C@@H]1CCC(=O)NC1)CS2

$$$$
cx0300a-cx0969a
     RDKit          3D

 25 28  0  0  0  0  0  0  0  0999 V2000
   15.6550    5.5500   14.2718 N   0  0  0  0  0  0  0  0  0  0  0  0
   15.1851    6.1368   15.4211 C   0  0  0  0  0  0  0  0  0  0  0  0
   14.5334    5.5031   16.2495 O   0  0  0  0  0  0  0  0  0  0  0  0
   18.6801    3.7249   11.6337 O   0  0  0  0  0  0  0  0  0  0  0  0
   15.8000   11.1092   15.7909 C   0  0  0  0  0  0  0  0  0  0  0  0
   16.6189   12.2704   15.9029 O   0  0  0  0  0  0  0  0  0  0  0  0
   16.4090    3.2157   14.4833 C   0  0  0  0  0  0  0  0  0  0  0  0
   17.7577    3.4928   13.8306 C   0  0  0  0  0  0  0  0  0  0  0  0
   17.6887    3.7890   12.3478 C   0  0  0  0  0  0  0  0  0  0  0  0
   16.5198    4.2504   11.8178 N   0  0  0  0  0  0  0  0  0  0  0  0
   15.2408    3.9940   12.4384 C   0  0  0  0  0  0  0  0  0  0  0  0
   15.3317    4.1603   13.9521 C   0  0  2  0  0  0  0  0  0  0  0  0
   14.3494    8.3058   16.2464 C   0  0  0  0  0  0  0  0  0  0  0  0
   15.5494    7.6276   15.6140 C   0  0  2  0  0  0  0  0  0  0  0  0
   15.9859    8.3028   14.3390 N   0  0  0  0  0  0  0  0  0  0  0  0
   15.0523    9.3800   13.9358 C   0  0  1  0  0  0  0  0  0  0  0  0
   13.5304    8.9791   14.8101 S   0  0  0  0  0  0  0  0  0  0  0  0
   15.5475   10.8269   14.3158 C   0  0  1  0  0  0  0  0  0  0  0  0
   14.8613    9.3799   12.4227 C   0  0  0  0  0  0  0  0  0  0  0  0
   14.7506   10.4817   11.6670 C   0  0  0  0  0  0  0  0  0  0  0  0
   14.5882   11.8723   12.1672 C   0  0  0  0  0  0  0  0  0  0  0  0
   14.6691   11.9513   13.6934 C   0  0  0  0  0  0  0  0  0  0  0  0
   14.8272    8.8799   10.1173 C   0  0  0  0  0  0  0  0  0  0  0  0
   14.7726    8.2074   11.4957 C   0  0  0  0  0  0  0  0  0  0  0  0
   14.6881   10.2967   10.2924 O   0  0  0  0  0  0  0  0  0  0  0  0
  2  1  1  0
  3  2  2  0
  6  5  1  0
  7 12  1  0
  7  8  1  0
  8  9  1  0
  9 10  1  0
  9  4  2  0
 10 11  1  0
 11 12  1  0
 12  1  1  6
 13 14  1  0
 13 17  1  0
 14  2  1  6
 14 15  1  0
 16 15  1  6
 16 17  1  0
 18  5  1  1
 18 22  1  0
 19 24  1  0
 19 20  2  0
 20 21  1  0
 20 25  1  0
 21 22  1  0
 23 24  1  0
 23 25  1  0
 16 18  1  0
 16 19  1  0
M  END
>  <generation_date>  (192) 
None

>  <inchikey>  (192) 
GYEAQTBJGVOZJU-IANATYFASA-N

>  <ref_mols>  (192) 
cx0969a,cx0300a

>  <tags>  (192) 
['butcher: adenine', 'select (DF) [batch4_others]', 'pure_merges', 'fragmenstein', 'butcher: oxyanion', 'raw']

>  <ref_pdb>  (192) 
cx0300a

>  <alias>  (192) 
cx0300a-cx0969a

>  <submitter_name>  (192) 
None

>  <HIPPO ID>  (192) 
1988

>  <original ID>  (192) 
cx0300a-cx0969a

>  <method>  (192) 
None

>  <ref_url>  (192) 
None

>  <submitter_email>  (192) 
None

>  <original SMILES>  (192) 
O=C1CC[C@@H](NC(=O)[C@@H]2CS[C@@]3(N2)C2=C(CC[C@H]3CO)OCC2)CN1

$$$$
cx0300a-cx0436a
     RDKit          3D

 29 32  0  0  0  0  0  0  0  0999 V2000
   15.0540    5.5363   14.3208 N   0  0  0  0  0  0  0  0  0  0  0  0
   14.8567    6.3783   15.3844 C   0  0  0  0  0  0  0  0  0  0  0  0
   14.7356    5.9977   16.5423 O   0  0  0  0  0  0  0  0  0  0  0  0
   18.4991    3.9111   11.8114 O   0  0  0  0  0  0  0  0  0  0  0  0
   16.8163    3.9025   15.0155 C   0  0  1  0  0  0  0  0  0  0  0  0
   17.7670    4.5630   13.9953 C   0  0  0  0  0  0  0  0  0  0  0  0
   17.5663    4.0592   12.5903 C   0  0  0  0  0  0  0  0  0  0  0  0
   16.2752    3.8873   12.1844 N   0  0  0  0  0  0  0  0  0  0  0  0
   15.2567    3.4424   13.1153 C   0  0  0  0  0  0  0  0  0  0  0  0
   15.3672    4.1111   14.4772 C   0  0  2  0  0  0  0  0  0  0  0  0
   14.7965    8.8413   15.8897 C   0  0  0  0  0  0  0  0  0  0  0  0
   14.8696    7.7900   14.9943 C   0  0  0  0  0  0  0  0  0  0  0  0
   15.0047    8.1758   13.6551 N   0  0  0  0  0  0  0  0  0  0  0  0
   14.9964    9.4893   13.5769 C   0  0  0  0  0  0  0  0  0  0  0  0
   14.9132   10.3360   15.0608 S   0  0  0  0  0  0  0  0  0  0  0  0
   15.3035    2.1628   16.6930 O   0  0  0  0  0  0  0  0  0  0  0  0
   16.6647   -0.4050   17.5792 C   0  0  0  0  0  0  0  0  0  0  0  0
   17.2079    2.5133   15.4336 N   0  0  0  0  0  0  0  0  0  0  0  0
   18.6129    2.1352   15.2393 C   0  0  0  0  0  0  0  0  0  0  0  0
   19.0808    0.8933   15.9789 C   0  0  0  0  0  0  0  0  0  0  0  0
   18.7197    1.0600   17.3750 N   0  0  0  0  0  0  0  0  0  0  0  0
   17.2463    1.0240   17.5213 C   0  0  1  0  0  0  0  0  0  0  0  0
   16.4989    1.9341   16.5031 C   0  0  0  0  0  0  0  0  0  0  0  0
   17.7449   -2.5860   18.3041 C   0  0  0  0  0  0  0  0  0  0  0  0
   18.3823   -3.3554   19.4569 C   0  0  0  0  0  0  0  0  0  0  0  0
   17.4190   -3.4864   20.6295 C   0  0  0  0  0  0  0  0  0  0  0  0
   16.8641   -2.1339   21.0736 C   0  0  0  0  0  0  0  0  0  0  0  0
   16.2451   -1.3571   19.9105 C   0  0  0  0  0  0  0  0  0  0  0  0
   17.2490   -1.2113   18.7634 C   0  0  0  0  0  0  0  0  0  0  0  0
  2  1  1  0
  3  2  2  0
  5 10  1  0
  5  6  1  0
  6  7  1  0
  7  8  1  0
  7  4  2  0
  8  9  1  0
  9 10  1  0
 10  1  1  6
 11 12  2  0
 11 15  1  0
 12  2  1  0
 12 13  1  0
 13 14  2  0
 14 15  1  0
 18 23  1  0
 18 19  1  0
 19 20  1  0
 20 21  1  0
 21 22  1  0
 22 23  1  0
 22 17  1  6
 23 16  2  0
 24 29  1  0
 24 25  1  0
 25 26  1  0
 26 27  1  0
 27 28  1  0
 28 29  1  0
 29 17  1  0
  5 18  1  6
M  END
>  <generation_date>  (193) 
None

>  <inchikey>  (193) 
XUUNKUVRUIOYAF-VYDXJSESSA-N

>  <ref_mols>  (193) 
cx0436a,cx0300a

>  <tags>  (193) 
['butcher: adenine', 'pure_merges', 'fragmenstein', 'select (HA) [batch4_others]', 'butcher: oxyanion', 'raw']

>  <ref_pdb>  (193) 
cx0300a

>  <alias>  (193) 
cx0300a-cx0436a

>  <submitter_name>  (193) 
None

>  <HIPPO ID>  (193) 
1996

>  <original ID>  (193) 
cx0300a-cx0436a

>  <method>  (193) 
None

>  <ref_url>  (193) 
None

>  <submitter_email>  (193) 
None

>  <original SMILES>  (193) 
O=C1C[C@H](N2CCN[C@H](CC3CCCCC3)C2=O)[C@@H](NC(=O)c2cscn2)CN1

$$$$
cx0300a-cx1132a
     RDKit          3D

 22 24  0  0  0  0  0  0  0  0999 V2000
   15.3917    5.3406   14.5297 N   0  0  0  0  0  0  0  0  0  0  0  0
   15.0231    6.1128   15.5911 C   0  0  0  0  0  0  0  0  0  0  0  0
   14.7430    5.6950   16.7055 O   0  0  0  0  0  0  0  0  0  0  0  0
   18.5150    3.8517   11.7657 O   0  0  0  0  0  0  0  0  0  0  0  0
   16.8013    3.3859   14.9951 C   0  0  0  0  0  0  0  0  0  0  0  0
   17.9339    3.8586   14.0913 C   0  0  0  0  0  0  0  0  0  0  0  0
   17.6267    3.8186   12.6093 C   0  0  0  0  0  0  0  0  0  0  0  0
   16.3195    3.8624   12.2187 N   0  0  0  0  0  0  0  0  0  0  0  0
   15.2387    3.4403   13.0834 C   0  0  0  0  0  0  0  0  0  0  0  0
   15.4480    3.9024   14.5165 C   0  0  2  0  0  0  0  0  0  0  0  0
   14.8449    8.5950   16.0224 C   0  0  0  0  0  0  0  0  0  0  0  0
   14.9811    7.5095   15.1866 C   0  0  0  0  0  0  0  0  0  0  0  0
   15.0804    7.8137   13.8268 N   0  0  0  0  0  0  0  0  0  0  0  0
   14.9356    9.1062   13.6420 C   0  0  0  0  0  0  0  0  0  0  0  0
   14.8473   10.0320   15.0958 S   0  0  0  0  0  0  0  0  0  0  0  0
   14.0962   12.9324   11.1385 N   0  0  0  0  0  0  0  0  0  0  0  0
   14.5664   11.6394   11.1471 C   0  0  0  0  0  0  0  0  0  0  0  0
   14.6401   11.0509   12.3287 N   0  0  0  0  0  0  0  0  0  0  0  0
   14.8434    9.7289   12.3183 C   0  0  0  0  0  0  0  0  0  0  0  0
   14.8917    8.9772   11.1497 C   0  0  0  0  0  0  0  0  0  0  0  0
   14.8622    9.6933    9.9835 C   0  0  0  0  0  0  0  0  0  0  0  0
   14.7213   11.0245    9.9689 N   0  0  0  0  0  0  0  0  0  0  0  0
  2  1  1  0
  3  2  2  0
  5 10  1  0
  5  6  1  0
  6  7  1  0
  7  8  1  0
  7  4  2  0
  8  9  1  0
  9 10  1  0
 10  1  1  6
 11 12  2  0
 11 15  1  0
 12  2  1  0
 12 13  1  0
 13 14  2  0
 14 15  1  0
 17 16  1  0
 17 22  2  0
 17 18  1  0
 18 19  2  0
 19 20  1  0
 20 21  2  0
 21 22  1  0
 14 19  1  0
M  END
>  <generation_date>  (194) 
None

>  <inchikey>  (194) 
IZFVORVORBSXRM-SSDOTTSWSA-N

>  <ref_mols>  (194) 
cx0300a,cx1132a

>  <tags>  (194) 
['butcher: adenine', 'select (DF) [batch4_others]', 'pure_merges', 'fragmenstein', 'butcher: oxyanion', 'raw']

>  <ref_pdb>  (194) 
cx0300a

>  <alias>  (194) 
cx0300a-cx1132a

>  <submitter_name>  (194) 
None

>  <HIPPO ID>  (194) 
1999

>  <original ID>  (194) 
cx0300a-cx1132a

>  <method>  (194) 
None

>  <ref_url>  (194) 
None

>  <submitter_email>  (194) 
None

>  <original SMILES>  (194) 
Nc1nccc(-c2nc(C(=O)N[C@@H]3CCC(=O)NC3)cs2)n1

$$$$
cx0300a-cx1131a
     RDKit          3D

 16 17  0  0  0  0  0  0  0  0999 V2000
   15.2290    5.6929   14.1757 N   0  0  0  0  0  0  0  0  0  0  0  0
   15.0063    6.4512   15.3014 C   0  0  0  0  0  0  0  0  0  0  0  0
   14.8474    5.9826   16.4223 O   0  0  0  0  0  0  0  0  0  0  0  0
   18.5733    3.7369   11.8105 O   0  0  0  0  0  0  0  0  0  0  0  0
   16.0875    4.1972   10.7063 O   0  0  0  0  0  0  0  0  0  0  0  0
   16.4928    3.6599   14.7944 C   0  0  0  0  0  0  0  0  0  0  0  0
   17.7272    4.0749   14.0145 C   0  0  0  0  0  0  0  0  0  0  0  0
   17.5951    3.8810   12.5294 C   0  0  0  0  0  0  0  0  0  0  0  0
   16.2083    3.9731   11.9035 C   0  0  0  0  0  0  0  0  0  0  0  0
   15.0308    3.7067   12.7858 C   0  0  0  0  0  0  0  0  0  0  0  0
   15.2181    4.2458   14.1865 C   0  0  2  0  0  0  0  0  0  0  0  0
   14.9206    8.8895   15.9363 C   0  0  0  0  0  0  0  0  0  0  0  0
   14.9855    7.8816   14.9939 C   0  0  0  0  0  0  0  0  0  0  0  0
   15.0513    8.3263   13.6670 N   0  0  0  0  0  0  0  0  0  0  0  0
   15.0242    9.6416   13.6440 C   0  0  0  0  0  0  0  0  0  0  0  0
   14.9805   10.4202   15.1667 S   0  0  0  0  0  0  0  0  0  0  0  0
  2  1  1  0
  3  2  2  0
  6 11  1  0
  6  7  1  0
  7  8  1  0
  8  9  1  0
  8  4  2  0
  9 10  1  0
 10 11  1  0
 11  1  1  6
 12 13  2  0
 12 16  1  0
 13  2  1  0
 13 14  1  0
 14 15  2  0
 15 16  1  0
  5  9  2  0
M  END
>  <generation_date>  (195) 
None

>  <inchikey>  (195) 
SXIIEZDCYAFGNV-ZCFIWIBFSA-N

>  <ref_mols>  (195) 
cx0300a,cx1131a

>  <tags>  (195) 
['butcher: adenine', 'select (DF) [batch4_others]', 'pure_merges', 'fragmenstein', 'butcher: oxyanion', 'raw']

>  <ref_pdb>  (195) 
cx0300a

>  <alias>  (195) 
cx0300a-cx1131a

>  <submitter_name>  (195) 
None

>  <HIPPO ID>  (195) 
2002

>  <original ID>  (195) 
cx0300a-cx1131a

>  <method>  (195) 
None

>  <ref_url>  (195) 
None

>  <submitter_email>  (195) 
None

>  <original SMILES>  (195) 
O=C1CC[C@@H](NC(=O)c2cscn2)CC1=O

$$$$
cx0300a-cx1417a
     RDKit          3D

 22 24  0  0  0  0  0  0  0  0999 V2000
   15.2074    5.6399   14.0542 N   0  0  0  0  0  0  0  0  0  0  0  0
   14.9403    6.3333   15.2008 C   0  0  0  0  0  0  0  0  0  0  0  0
   14.6933    5.8157   16.2836 O   0  0  0  0  0  0  0  0  0  0  0  0
   18.5933    3.8148   11.7149 O   0  0  0  0  0  0  0  0  0  0  0  0
   14.4245   12.9007   13.3114 C   0  0  0  0  0  0  0  0  0  0  0  0
   14.9153    8.6667   10.4299 C   0  0  0  0  0  0  0  0  0  0  0  0
   16.3410    3.5090   14.5775 C   0  0  0  0  0  0  0  0  0  0  0  0
   17.6437    3.9253   13.9088 C   0  0  0  0  0  0  0  0  0  0  0  0
   17.5829    3.9256   12.3984 C   0  0  0  0  0  0  0  0  0  0  0  0
   16.3791    4.1648   11.7968 N   0  0  0  0  0  0  0  0  0  0  0  0
   15.1255    3.8373   12.4419 C   0  0  0  0  0  0  0  0  0  0  0  0
   15.1409    4.1984   13.9259 C   0  0  2  0  0  0  0  0  0  0  0  0
   14.9141    8.7251   15.9641 C   0  0  0  0  0  0  0  0  0  0  0  0
   14.9707    7.7761   14.9669 C   0  0  0  0  0  0  0  0  0  0  0  0
   15.0492    8.2962   13.6651 N   0  0  0  0  0  0  0  0  0  0  0  0
   14.9545    9.6101   13.6961 C   0  0  0  0  0  0  0  0  0  0  0  0
   14.9554   10.2835   15.2767 S   0  0  0  0  0  0  0  0  0  0  0  0
   14.4997   12.0990   10.9553 N   0  0  0  0  0  0  0  0  0  0  0  0
   14.6000   11.8354   12.2971 C   0  0  0  0  0  0  0  0  0  0  0  0
   14.8292   10.4712   12.3800 C   0  0  0  0  0  0  0  0  0  0  0  0
   14.8461   10.0212   11.0259 C   0  0  0  0  0  0  0  0  0  0  0  0
   14.7323   11.0411   10.1756 N   0  0  0  0  0  0  0  0  0  0  0  0
  2  1  1  0
  3  2  2  0
  7 12  1  0
  7  8  1  0
  8  9  1  0
  9 10  1  0
  9  4  2  0
 10 11  1  0
 11 12  1  0
 12  1  1  6
 13 14  2  0
 13 17  1  0
 14  2  1  0
 14 15  1  0
 15 16  2  0
 16 17  1  0
 18 19  1  0
 18 22  1  0
 19 20  2  0
 19  5  1  0
 20 21  1  0
 21  6  1  0
 21 22  2  0
 16 20  1  0
M  END
>  <generation_date>  (196) 
None

>  <inchikey>  (196) 
OULBTDXTVHQBAE-SECBINFHSA-N

>  <ref_mols>  (196) 
cx0300a,cx1417a

>  <tags>  (196) 
['butcher: adenine', 'select (DF) [batch4_others]', 'pure_merges', 'fragmenstein', 'butcher: oxyanion', 'raw']

>  <ref_pdb>  (196) 
cx0300a

>  <alias>  (196) 
cx0300a-cx1417a

>  <submitter_name>  (196) 
None

>  <HIPPO ID>  (196) 
2006

>  <original ID>  (196) 
cx0300a-cx1417a

>  <method>  (196) 
None

>  <ref_url>  (196) 
None

>  <submitter_email>  (196) 
None

>  <original SMILES>  (196) 
Cc1n[nH]c(C)c1-c1nc(C(=O)N[C@@H]2CCC(=O)NC2)cs1

$$$$
cx0300a-cx0399a
     RDKit          3D

 26 29  0  0  0  0  0  0  0  0999 V2000
   15.3582    5.8138   13.7819 N   0  0  0  0  0  0  0  0  0  0  0  0
   15.3041    6.5123   14.9545 C   0  0  0  0  0  0  0  0  0  0  0  0
   15.2170    5.9809   16.0572 O   0  0  0  0  0  0  0  0  0  0  0  0
   18.6240    3.7329   11.6084 O   0  0  0  0  0  0  0  0  0  0  0  0
   14.8662    9.6342   10.8804 N   0  0  0  0  0  0  0  0  0  0  0  0
   14.8415    9.3302    9.4738 C   0  0  0  0  0  0  0  0  0  0  0  0
   14.6129   11.8650   10.5756 O   0  0  0  0  0  0  0  0  0  0  0  0
   14.7570   10.9278   11.3490 C   0  0  0  0  0  0  0  0  0  0  0  0
   16.2695    3.5816   14.3999 C   0  0  0  0  0  0  0  0  0  0  0  0
   17.6197    3.8869   13.7698 C   0  0  0  0  0  0  0  0  0  0  0  0
   17.5978    3.8867   12.2589 C   0  0  0  0  0  0  0  0  0  0  0  0
   16.4223    4.1600   11.6173 N   0  0  0  0  0  0  0  0  0  0  0  0
   15.1340    3.9443   12.2393 C   0  0  0  0  0  0  0  0  0  0  0  0
   15.1537    4.3721   13.7061 C   0  0  2  0  0  0  0  0  0  0  0  0
   15.4077    8.8465   15.8351 C   0  0  0  0  0  0  0  0  0  0  0  0
   15.2895    7.9649   14.7682 C   0  0  0  0  0  0  0  0  0  0  0  0
   15.1159    8.6325   13.5054 N   0  0  0  0  0  0  0  0  0  0  0  0
   14.8717    9.9331   13.7228 C   0  0  0  0  0  0  0  0  0  0  0  0
   14.3314   10.0432   15.3565 S   0  0  0  0  0  4  0  0  0  0  0  0
   14.8117   11.0898   12.8426 C   0  0  0  0  0  0  0  0  0  0  0  0
   14.8307   12.3453   13.3654 C   0  0  0  0  0  0  0  0  0  0  0  0
   15.0683   12.6370   14.7685 C   0  0  0  0  0  0  0  0  0  0  0  0
   15.1702   11.5556   15.7474 C   0  0  0  0  0  0  0  0  0  0  0  0
   15.1746   13.9368   15.0198 C   0  0  0  0  0  0  0  0  0  0  0  0
   14.7509   13.5815   12.7411 N   0  0  0  0  0  0  0  0  0  0  0  0
   14.9387   14.4569   13.6799 C   0  0  0  0  0  0  0  0  0  0  0  0
  2  1  1  0
  3  2  2  0
  6  5  1  0
  8  5  1  0
  8  7  2  0
  9 14  1  0
  9 10  1  0
 10 11  1  0
 11 12  1  0
 11  4  2  0
 12 13  1  0
 13 14  1  0
 14  1  1  6
 15 16  2  0
 15 19  1  0
 16  2  1  0
 16 17  1  0
 17 18  2  0
 18 19  1  0
 20  8  1  0
 20 21  2  0
 21 22  1  0
 21 25  1  0
 22 23  1  0
 22 24  2  0
 24 26  1  0
 25 26  2  0
 19 23  2  0
 18 20  1  0
M  END
>  <generation_date>  (197) 
None

>  <inchikey>  (197) 
OZFXABSOQMQAMP-AFNXNYLOSA-N

>  <ref_mols>  (197) 
cx0300a,cx0399a

>  <tags>  (197) 
['butcher: adenine', 'select (DF) [batch4_others]', 'pure_merges', 'fragmenstein', 'butcher: oxyanion', 'raw']

>  <ref_pdb>  (197) 
cx0300a

>  <alias>  (197) 
cx0300a-cx0399a

>  <submitter_name>  (197) 
None

>  <HIPPO ID>  (197) 
2007

>  <original ID>  (197) 
cx0300a-cx0399a

>  <method>  (197) 
None

>  <ref_url>  (197) 
None

>  <submitter_email>  (197) 
None

>  <original SMILES>  (197) 
CNC(=O)C1=C2N=CC=C2C=S2C=C(C(=O)N[C@@H]3CCC(=O)NC3)N=C12

$$$$
cx0721a-cx1372a
     RDKit          3D

 18 19  0  0  0  0  0  0  0  0999 V2000
   15.8243    6.1516   16.9886 N   0  0  0  0  0  0  0  0  0  0  0  0
   17.1443    6.1084   17.5952 C   0  0  0  0  0  0  0  0  0  0  0  0
   14.1520    7.4936   16.1626 O   0  0  0  0  0  0  0  0  0  0  0  0
   14.8475    5.2447   17.5436 C   0  0  0  0  0  0  0  0  0  0  0  0
   15.3550    7.2537   16.2769 C   0  0  0  0  0  0  0  0  0  0  0  0
   16.4392    8.0930   15.5916 C   0  0  0  0  0  0  0  0  0  0  0  0
   14.9723    8.6021   10.3265 C   0  0  0  0  0  0  0  0  0  0  0  0
   15.9337    9.1096   14.6787 N   0  0  0  0  0  0  0  0  0  0  0  0
   14.8436    9.8057   12.6478 C   0  0  0  0  0  0  0  0  0  0  0  0
   14.8415    9.7808   11.2547 C   0  0  0  0  0  0  0  0  0  0  0  0
   14.6688   11.1004   10.7508 C   0  0  0  0  0  0  0  0  0  0  0  0
   14.4606   12.0556   11.7034 C   0  0  0  0  0  0  0  0  0  0  0  0
   14.5542   11.4062   13.2638 S   0  0  0  0  0  0  0  0  0  0  0  0
   14.2252    7.3215   10.6709 C   0  0  0  0  0  0  0  0  0  0  0  0
   14.1130    6.8518   12.1113 C   0  0  0  0  0  0  0  0  0  0  0  0
   15.2258    7.2994   13.0429 C   0  0  0  0  0  0  0  0  0  0  0  0
   14.9571    8.6842   13.6638 C   0  0  1  0  0  0  0  0  0  0  0  0
   14.6325   11.3546    9.4417 O   0  0  0  0  0  0  0  0  0  0  0  0
  2  1  1  0
  4  1  1  0
  5  3  2  0
  5  1  1  0
  6  5  1  0
  8  6  1  0
  9 10  2  0
  9 13  1  0
 10  7  1  0
 10 11  1  0
 11 12  2  0
 12 13  1  0
 14 15  1  0
 15 16  1  0
 16 17  1  0
  9 17  1  0
 17  8  1  1
  7 14  1  0
 11 18  1  0
M  END
>  <generation_date>  (198) 
None

>  <inchikey>  (198) 
DXILOKLGUWOXKC-SNVBAGLBSA-N

>  <ref_mols>  (198) 
cx1372a,cx0721a

>  <tags>  (198) 
['butcher: adenine', 'pure_merges', 'fragmenstein', 'select (DF) [batch2_adenine2]', 'raw']

>  <ref_pdb>  (198) 
cx0300a

>  <alias>  (198) 
cx0721a-cx1372a

>  <submitter_name>  (198) 
None

>  <HIPPO ID>  (198) 
2054

>  <original ID>  (198) 
cx0721a-cx1372a

>  <method>  (198) 
None

>  <ref_url>  (198) 
None

>  <submitter_email>  (198) 
None

>  <original SMILES>  (198) 
CN(C)C(=O)CN[C@@H]1CCCCc2c(O)csc21

$$$$
cx1299a-cx1278a
     RDKit          3D

 15 16  0  0  0  0  0  0  0  0999 V2000
   16.8143   10.8637   14.9497 C   0  0  0  0  0  0  0  0  0  0  0  0
   15.5284   11.4324   14.3412 C   0  0  2  0  0  0  0  0  0  0  0  0
   14.4112   11.1921   15.3260 C   0  0  0  0  0  0  0  0  0  0  0  0
   14.1876   13.1306   12.2241 N   0  0  0  0  0  0  0  0  0  0  0  0
   14.5263    9.1730   16.6227 C   0  0  0  0  0  0  0  0  0  0  0  0
   14.0350    9.8236   15.4558 O   0  0  0  0  0  0  0  0  0  0  0  0
   15.1485   11.0458   12.9864 N   0  0  0  0  0  0  0  0  0  0  0  0
   14.7125   11.9068   11.9943 C   0  0  0  0  0  0  0  0  0  0  0  0
   14.7112   11.3324   10.8208 N   0  0  0  0  0  0  0  0  0  0  0  0
   14.8424   10.0012   11.0822 C   0  0  0  0  0  0  0  0  0  0  0  0
   15.0174    9.7767   12.4537 C   0  0  0  0  0  0  0  0  0  0  0  0
   14.7186    8.9159   10.1971 C   0  0  0  0  0  0  0  0  0  0  0  0
   14.6870    7.6239   10.7337 C   0  0  0  0  0  0  0  0  0  0  0  0
   14.8592    7.4077   12.0992 C   0  0  0  0  0  0  0  0  0  0  0  0
   15.0490    8.4755   12.9831 C   0  0  0  0  0  0  0  0  0  0  0  0
  2  1  1  1
  3  2  1  0
  6  5  1  0
  6  3  1  0
  7  2  1  0
  7  8  1  0
  7 11  1  0
  8  4  1  0
  8  9  2  0
  9 10  1  0
 10 12  1  0
 10 11  2  0
 11 15  1  0
 12 13  2  0
 13 14  1  0
 14 15  2  0
M  END
>  <generation_date>  (199) 
None

>  <inchikey>  (199) 
SRBKGIOKGZEZBL-MRVPVSSYSA-N

>  <ref_mols>  (199) 
cx1278a,cx1299a

>  <tags>  (199) 
['butcher: adenine', 'pure_merges', 'fragmenstein', 'select (HA) [batch2_adenine2]', 'raw']

>  <ref_pdb>  (199) 
cx0300a

>  <alias>  (199) 
cx1299a-cx1278a

>  <submitter_name>  (199) 
None

>  <HIPPO ID>  (199) 
2090

>  <original ID>  (199) 
cx1299a-cx1278a

>  <method>  (199) 
None

>  <ref_url>  (199) 
None

>  <submitter_email>  (199) 
None

>  <original SMILES>  (199) 
COC[C@@H](C)n1c(N)nc2ccccc21

$$$$
cx1445a-cx0300a
     RDKit          3D

 20 21  0  0  0  0  0  0  0  0999 V2000
   14.2722   12.4023   11.2652 N   0  0  0  0  0  0  0  0  0  0  0  0
   14.7754   11.1810   10.9215 C   0  0  0  0  0  0  0  0  0  0  0  0
   15.1031   10.9375    9.7626 O   0  0  0  0  0  0  0  0  0  0  0  0
   14.8927    8.4207   10.1319 O   0  0  0  0  0  0  0  0  0  0  0  0
   15.8244    5.7783   14.2719 N   0  0  0  0  0  0  0  0  0  0  0  0
   14.9298    6.7472   14.6618 C   0  0  0  0  0  0  0  0  0  0  0  0
   14.2218    6.6618   15.6544 O   0  0  0  0  0  0  0  0  0  0  0  0
   18.4543    3.6754   11.6838 O   0  0  0  0  0  0  0  0  0  0  0  0
   14.8253   10.0901   11.9296 C   0  0  0  0  0  0  0  0  0  0  0  0
   14.8368    8.7583   11.4609 C   0  0  0  0  0  0  0  0  0  0  0  0
   14.8437    7.6859   12.3519 C   0  0  0  0  0  0  0  0  0  0  0  0
   14.8756    7.9208   13.7339 C   0  0  0  0  0  0  0  0  0  0  0  0
   14.8543    9.2369   14.2165 C   0  0  0  0  0  0  0  0  0  0  0  0
   14.8325   10.3230   13.3161 C   0  0  0  0  0  0  0  0  0  0  0  0
   16.9015    3.7094   15.0540 C   0  0  0  0  0  0  0  0  0  0  0  0
   18.0303    3.8182   14.0345 C   0  0  0  0  0  0  0  0  0  0  0  0
   17.6181    3.7321   12.5781 C   0  0  0  0  0  0  0  0  0  0  0  0
   16.2921    3.8300   12.2679 N   0  0  0  0  0  0  0  0  0  0  0  0
   15.2354    3.6584   13.2465 C   0  0  0  0  0  0  0  0  0  0  0  0
   15.6153    4.3597   14.5545 C   0  0  2  0  0  0  0  0  0  0  0  0
  2  1  1  0
  3  2  2  0
  6  5  1  0
  7  6  2  0
  9  2  1  0
  9 14  2  0
  9 10  1  0
 10 11  2  0
 10  4  1  0
 11 12  1  0
 12 13  2  0
 13 14  1  0
 15 20  1  0
 15 16  1  0
 16 17  1  0
 17 18  1  0
 17  8  2  0
 18 19  1  0
 19 20  1  0
 20  5  1  6
  6 12  1  0
M  END
>  <generation_date>  (200) 
None

>  <inchikey>  (200) 
KGXYLASKIYICEW-MRVPVSSYSA-N

>  <ref_mols>  (200) 
cx0300a,cx1445a

>  <tags>  (200) 
['butcher: adenine', 'pure_merges', 'fragmenstein', 'select (HA) [batch4_others]', 'butcher: oxyanion', 'raw']

>  <ref_pdb>  (200) 
cx0300a

>  <alias>  (200) 
cx1445a-cx0300a

>  <submitter_name>  (200) 
None

>  <HIPPO ID>  (200) 
2147

>  <original ID>  (200) 
cx1445a-cx0300a

>  <method>  (200) 
None

>  <ref_url>  (200) 
None

>  <submitter_email>  (200) 
None

>  <original SMILES>  (200) 
NC(=O)c1ccc(C(=O)N[C@@H]2CCC(=O)NC2)cc1O

$$$$
cx1131a-cx0540a
     RDKit          3D

 20 21  0  0  0  0  0  0  0  0999 V2000
   15.9498    4.2348   10.9409 O   0  0  0  0  0  0  0  0  0  0  0  0
   17.7199    2.0348   15.6467 N   0  0  0  0  0  0  0  0  0  0  0  0
   15.7444    1.1454   16.4209 O   0  0  0  0  0  0  0  0  0  0  0  0
   19.1753    2.0146   15.7467 C   0  0  0  0  0  0  0  0  0  0  0  0
   16.9708    1.0935   16.3716 C   0  0  0  0  0  0  0  0  0  0  0  0
   17.7419   -0.0200   17.1078 C   0  0  0  0  0  0  0  0  0  0  0  0
   20.1103   -4.5344   17.9593 F   0  0  0  0  0  0  0  0  0  0  0  0
   16.8540   -1.0510   17.5367 O   0  0  0  0  0  0  0  0  0  0  0  0
   17.8997    3.7541   14.0187 N   0  0  0  0  0  0  0  0  0  0  0  0
   17.1769    2.5226   14.3765 C   0  0  2  0  0  0  0  0  0  0  0  0
   15.6602    2.8152   14.2359 C   0  0  0  0  0  0  0  0  0  0  0  0
   15.3275    3.4297   12.9519 N   0  0  0  0  0  0  0  0  0  0  0  0
   16.2652    3.9224   12.0873 C   0  0  0  0  0  0  0  0  0  0  0  0
   17.7104    4.0316   12.5785 C   0  0  0  0  0  0  0  0  0  0  0  0
   17.4641   -2.0740   18.2068 C   0  0  0  0  0  0  0  0  0  0  0  0
   18.5917   -2.7441   17.7394 C   0  0  0  0  0  0  0  0  0  0  0  0
   19.0764   -3.8393   18.4513 C   0  0  0  0  0  0  0  0  0  0  0  0
   18.4718   -4.2640   19.6270 C   0  0  0  0  0  0  0  0  0  0  0  0
   17.3488   -3.5890   20.0939 C   0  0  0  0  0  0  0  0  0  0  0  0
   16.8365   -2.5065   19.3751 C   0  0  0  0  0  0  0  0  0  0  0  0
  4  2  1  0
  5  3  2  0
  5  2  1  0
  6  5  1  0
  8  6  1  0
  9 14  1  0
  9 10  1  0
 10 11  1  0
 11 12  1  0
 12 13  1  0
 13  1  2  0
 13 14  1  0
 15 20  1  0
 15 16  2  0
 15  8  1  0
 16 17  1  0
 17 18  2  0
 17  7  1  0
 18 19  1  0
 19 20  2  0
 10  2  1  1
M  END
>  <generation_date>  (201) 
None

>  <inchikey>  (201) 
HJVXEPFWHPZXEY-NSHDSACASA-N

>  <ref_mols>  (201) 
cx0540a,cx1131a

>  <tags>  (201) 
['pure_merges', 'fragmenstein', 'butcher: oxyanion', 'select (HA) [batch3_oxyanion]', 'raw']

>  <ref_pdb>  (201) 
cx0300a

>  <alias>  (201) 
cx1131a-cx0540a

>  <submitter_name>  (201) 
None

>  <HIPPO ID>  (201) 
2164

>  <original ID>  (201) 
cx1131a-cx0540a

>  <method>  (201) 
None

>  <ref_url>  (201) 
None

>  <submitter_email>  (201) 
None

>  <original SMILES>  (201) 
CN(C(=O)COc1cccc(F)c1)[C@H]1CNC(=O)CN1

$$$$
cx0406a-cx0824a
     RDKit          3D

 31 34  0  0  0  0  0  0  0  0999 V2000
   14.5677   12.0982   11.8556 C   0  0  0  0  0  0  0  0  0  0  0  0
   11.3752    6.6790   13.6241 O   0  0  0  0  0  0  0  0  0  0  0  0
   12.0254    5.7704   12.7509 C   0  0  0  0  0  0  0  0  0  0  0  0
   14.6186    7.2687   11.5934 N   0  0  0  0  0  0  0  0  0  0  0  0
   16.1009    1.6989   15.6725 N   0  0  0  0  0  0  0  0  0  0  0  0
   18.3358    1.3558   16.0802 O   0  0  0  0  0  0  0  0  0  0  0  0
   17.1614    1.0795   16.3024 C   0  0  0  0  0  0  0  0  0  0  0  0
   16.2939    2.6147   14.5633 C   0  0  0  0  0  0  0  0  0  0  0  0
   16.9340    3.9606   14.9166 C   0  0  0  0  0  0  0  0  0  0  0  0
   14.8258    0.9929   18.0210 F   0  0  0  0  0  0  0  0  0  0  0  0
   14.8577   10.6679    9.8995 N   0  0  0  0  0  0  0  0  0  0  0  0
   14.7804   10.7762   11.2264 C   0  0  0  0  0  0  0  0  0  0  0  0
   14.7934    9.6187   12.0066 N   0  0  0  0  0  0  0  0  0  0  0  0
   14.7277    8.5676   11.2144 C   0  0  0  0  0  0  0  0  0  0  0  0
   14.7791    9.0468    9.5576 S   0  0  0  0  0  0  0  0  0  0  0  0
   15.5705    6.6154   13.7578 C   0  0  0  0  0  0  0  0  0  0  0  0
   14.2941    6.9550   12.9807 C   0  0  2  0  0  0  0  0  0  0  0  0
   13.5117    5.6413   13.1100 C   0  0  1  0  0  0  0  0  0  0  0  0
   13.7830    5.2006   14.5717 C   0  0  0  0  0  0  0  0  0  0  0  0
   15.0726    5.9258   15.0562 C   0  0  1  0  0  0  0  0  0  0  0  0
   15.7248   -0.0028   18.0763 C   0  0  0  0  0  0  0  0  0  0  0  0
   16.8491   -0.0151   17.2535 C   0  0  0  0  0  0  0  0  0  0  0  0
   17.7611   -1.0781   17.3570 C   0  0  0  0  0  0  0  0  0  0  0  0
   17.5454   -2.1096   18.2732 C   0  0  0  0  0  0  0  0  0  0  0  0
   16.4265   -2.0773   19.1025 C   0  0  0  0  0  0  0  0  0  0  0  0
   15.5159   -1.0231   19.0032 C   0  0  0  0  0  0  0  0  0  0  0  0
   15.6831    4.4651   17.1004 C   0  0  0  0  0  0  0  0  0  0  0  0
   16.1574    5.0212   15.7412 C   0  0  1  0  0  0  0  0  0  0  0  0
   14.6848    7.0581   16.0908 C   0  0  0  0  0  0  0  0  0  0  0  0
   14.9395    6.7831   17.5135 N   0  0  0  0  0  0  0  0  0  0  0  0
   14.7292    5.3894   17.8497 C   0  0  0  0  0  0  0  0  0  0  0  0
  3  2  1  0
  7  5  1  0
  7  6  2  0
  8  5  1  0
  9  8  1  0
 11 12  2  0
 11 15  1  0
 12  1  1  0
 12 13  1  0
 13 14  2  0
 14  4  1  0
 14 15  1  0
 16 17  1  0
 20 16  1  6
 17 18  1  0
 17  4  1  6
 18 19  1  0
 18  3  1  1
 19 20  1  0
 21 26  2  0
 21 22  1  0
 21 10  1  0
 22 23  2  0
 22  7  1  0
 23 24  1  0
 24 25  2  0
 25 26  1  0
 27 31  1  0
 27 28  1  0
 28  9  1  6
 29 30  1  0
 30 31  1  0
 20 28  1  0
 20 29  1  0
M  END
>  <generation_date>  (202) 
None

>  <inchikey>  (202) 
FAIKVXHYCBBUTG-MMQADKFZSA-N

>  <ref_mols>  (202) 
cx0824a,cx0406a

>  <tags>  (202) 
['butcher: adenine', 'pure_merges', 'butcher: phosphate', 'fragmenstein', 'select (HA) [batch4_others]', 'butcher: oxyanion', 'raw']

>  <ref_pdb>  (202) 
cx0300a

>  <alias>  (202) 
cx0406a-cx0824a

>  <submitter_name>  (202) 
None

>  <HIPPO ID>  (202) 
2185

>  <original ID>  (202) 
cx0406a-cx0824a

>  <method>  (202) 
None

>  <ref_url>  (202) 
None

>  <submitter_email>  (202) 
None

>  <original SMILES>  (202) 
Cc1nsc(N[C@@H]2C[C@@]3(CNCC[C@H]3CCNC(=O)c3ccccc3F)C[C@H]2CO)n1

$$$$
cx0756a-cx1299a
     RDKit          3D

 18 20  0  0  0  0  0  0  0  0999 V2000
   16.9705   10.9688   15.2864 C   0  0  0  0  0  0  0  0  0  0  0  0
   15.7280   11.7510   14.8466 C   0  0  0  0  0  0  0  0  0  0  0  0
   14.7360   11.8683   15.9762 C   0  0  0  0  0  0  0  0  0  0  0  0
   14.7012   13.8731   13.2467 N   0  0  0  0  0  0  0  0  0  0  0  0
   14.6139    7.8251   15.4794 N   0  0  0  0  0  0  0  0  0  0  0  0
   14.9134    6.8914   14.5483 C   0  0  0  0  0  0  0  0  0  0  0  0
   15.0455    7.5743   13.3564 C   0  0  0  0  0  0  0  0  0  0  0  0
   14.8996    8.9572   13.6870 C   0  0  0  0  0  0  0  0  0  0  0  0
   14.5262    9.0522   14.9733 N   0  0  0  0  0  0  0  0  0  0  0  0
   15.1033   11.4627   13.4739 C   0  0  0  0  0  0  0  0  0  0  0  0
   14.7147   12.5850   12.7192 C   0  0  0  0  0  0  0  0  0  0  0  0
   14.4203   12.5487   11.4224 N   0  0  0  0  0  0  0  0  0  0  0  0
   14.5502   11.3612   10.8121 C   0  0  0  0  0  0  0  0  0  0  0  0
   14.7896   10.1343   11.4471 C   0  0  0  0  0  0  0  0  0  0  0  0
   14.9646   10.1800   12.8533 C   0  0  0  0  0  0  0  0  0  0  0  0
   14.8234    8.9434   10.5002 C   0  0  0  0  0  0  0  0  0  0  0  0
   14.4275    7.5386   10.9461 C   0  0  0  0  0  0  0  0  0  0  0  0
   15.2620    6.9328   12.0467 C   0  0  0  0  0  0  0  0  0  0  0  0
  2  1  1  0
  3  2  1  0
  5  6  1  0
  5  9  1  0
  6  7  2  0
  7  8  1  0
  8 15  1  0
  8  9  2  0
 10 15  2  0
 10 11  1  0
 11 12  2  0
 12 13  1  0
 13 14  2  0
 14 15  1  0
 16 17  1  0
 17 18  1  0
 14 16  1  0
 18  7  1  0
  2 10  1  0
  4 11  1  0
M  END
>  <generation_date>  (203) 
None

>  <inchikey>  (203) 
STLCGPXKQDCKHO-UHFFFAOYSA-N

>  <ref_mols>  (203) 
cx1299a,cx0756a

>  <tags>  (203) 
['butcher: adenine', 'pure_merges', 'fragmenstein', 'select (DF) [batch2_adenine2]', 'raw']

>  <ref_pdb>  (203) 
cx0300a

>  <alias>  (203) 
cx0756a-cx1299a

>  <submitter_name>  (203) 
None

>  <HIPPO ID>  (203) 
2272

>  <original ID>  (203) 
cx0756a-cx1299a

>  <method>  (203) 
None

>  <ref_url>  (203) 
None

>  <submitter_email>  (203) 
None

>  <original SMILES>  (203) 
CC(C)c1c(N)ncc2c1-c1n[nH]cc1CCC2

$$$$
cx0756a-cx1288a
     RDKit          3D

 13 15  0  0  0  0  0  0  0  0999 V2000
   14.8846    7.7377   11.8325 C   0  0  0  0  0  0  0  0  0  0  0  0
   15.1435    7.7287   15.3442 N   0  0  0  0  0  0  0  0  0  0  0  0
   15.1018    7.0276   14.1725 C   0  0  0  0  0  0  0  0  0  0  0  0
   14.9675    7.9787   13.2011 C   0  0  0  0  0  0  0  0  0  0  0  0
   14.9386    9.2580   13.8709 C   0  0  0  0  0  0  0  0  0  0  0  0
   15.0220    9.0617   15.2008 N   0  0  0  0  0  0  0  0  0  0  0  0
   14.6675   11.7174   13.7221 C   0  0  0  0  0  0  0  0  0  0  0  0
   14.4704   12.7941   12.8873 C   0  0  0  0  0  0  0  0  0  0  0  0
   14.4446   12.7106   11.5420 N   0  0  0  0  0  0  0  0  0  0  0  0
   14.6052   11.4746   10.9933 C   0  0  0  0  0  0  0  0  0  0  0  0
   14.7721   10.2838   11.7131 C   0  0  0  0  0  0  0  0  0  0  0  0
   14.8094   10.4604   13.1236 C   0  0  0  0  0  0  0  0  0  0  0  0
   14.8091    8.9569   11.1064 C   0  0  0  0  0  0  0  0  0  0  0  0
  2  3  1  0
  2  6  1  0
  3  4  2  0
  4  1  1  0
  4  5  1  0
  5 12  1  0
  5  6  2  0
  7 12  2  0
  7  8  1  0
  8  9  2  0
  9 10  1  0
 10 11  2  0
 11 12  1  0
 11 13  1  0
  1 13  2  0
M  END
>  <generation_date>  (204) 
None

>  <inchikey>  (204) 
KEWAXFKLLZDCDX-UHFFFAOYSA-N

>  <ref_mols>  (204) 
cx1288a,cx0756a

>  <tags>  (204) 
['butcher: adenine', 'pure_merges', 'fragmenstein', 'select (DF) [batch2_adenine2]', 'raw']

>  <ref_pdb>  (204) 
cx0300a

>  <alias>  (204) 
cx0756a-cx1288a

>  <submitter_name>  (204) 
None

>  <HIPPO ID>  (204) 
2275

>  <original ID>  (204) 
cx0756a-cx1288a

>  <method>  (204) 
None

>  <ref_url>  (204) 
None

>  <submitter_email>  (204) 
None

>  <original SMILES>  (204) 
c1cc2c(ccc3c[nH]nc32)cn1

$$$$
cx1316a-cx0316a
     RDKit          3D

 24 26  0  0  0  0  0  0  0  0999 V2000
   13.8353    9.0626    8.9099 C   0  0  0  0  0  0  0  0  0  0  0  0
   14.4104    8.8543   10.2347 N   0  0  0  0  0  0  0  0  0  0  0  0
   14.8769   10.0540   10.7877 C   0  0  0  0  0  0  0  0  0  0  0  0
   15.1723   10.9744   10.0101 O   0  0  0  0  0  0  0  0  0  0  0  0
   14.9216   12.2360   16.0106 O   0  0  0  0  0  0  0  0  0  0  0  0
   18.2667    4.2886   12.0360 O   0  0  0  0  0  0  0  0  0  0  0  0
   15.5511    4.2591   11.3947 C   0  0  0  0  0  0  0  0  0  0  0  0
   14.8205   10.4748   12.2263 C   0  0  0  0  0  0  0  0  0  0  0  0
   15.0262    9.6740   13.3473 C   0  0  0  0  0  0  0  0  0  0  0  0
   15.0570   10.2558   14.6306 C   0  0  0  0  0  0  0  0  0  0  0  0
   14.8454   11.6262   14.7936 C   0  0  0  0  0  0  0  0  0  0  0  0
   14.5532   12.4240   13.7045 C   0  0  0  0  0  0  0  0  0  0  0  0
   14.5481   11.8514   12.4333 C   0  0  0  0  0  0  0  0  0  0  0  0
   15.2619    6.8396   11.4081 N   0  0  0  0  0  0  0  0  0  0  0  0
   14.3817    7.5645   10.7402 C   0  0  0  0  0  0  0  0  0  0  0  0
   13.3649    6.7861   10.2342 O   0  0  0  0  0  0  0  0  0  0  0  0
   13.6309    5.4756   10.5414 N   0  0  0  0  0  0  0  0  0  0  0  0
   14.7931    5.5347   11.1956 C   0  0  0  0  0  0  0  0  0  0  0  0
   15.1979    3.7592   13.7704 C   0  0  0  0  0  0  0  0  0  0  0  0
   16.0687    4.0706   12.7424 N   0  0  0  0  0  0  0  0  0  0  0  0
   17.4470    4.0179   12.9061 C   0  0  0  0  0  0  0  0  0  0  0  0
   17.9320    3.5859   14.2425 C   0  0  0  0  0  0  0  0  0  0  0  0
   17.0628    3.2818   15.2112 C   0  0  0  0  0  0  0  0  0  0  0  0
   15.6508    3.3805   14.9701 C   0  0  0  0  0  0  0  0  0  0  0  0
  2  1  1  0
  3  2  1  0
  4  3  2  0
  8  3  1  0
  8 13  1  0
  8  9  2  0
  9 10  1  0
 10 11  2  0
 11 12  1  0
 11  5  1  0
 12 13  2  0
 14 15  2  0
 14 18  1  0
 15 16  1  0
 16 17  1  0
 17 18  2  0
 18  7  1  0
 19 24  2  0
 19 20  1  0
 20  7  1  0
 20 21  1  0
 21 22  1  0
 21  6  2  0
 22 23  2  0
 23 24  1  0
  2 15  1  0
M  END
>  <generation_date>  (205) 
None

>  <inchikey>  (205) 
IBXQLIVBJJJVRV-UHFFFAOYSA-N

>  <ref_mols>  (205) 
cx1316a,cx0316a

>  <tags>  (205) 
['butcher: adenine', 'select (DF) [batch4_others]', 'pure_merges', 'fragmenstein', 'butcher: oxyanion', 'raw']

>  <ref_pdb>  (205) 
cx0300a

>  <alias>  (205) 
cx1316a-cx0316a

>  <submitter_name>  (205) 
None

>  <HIPPO ID>  (205) 
2300

>  <original ID>  (205) 
cx1316a-cx0316a

>  <method>  (205) 
None

>  <ref_url>  (205) 
None

>  <submitter_email>  (205) 
None

>  <original SMILES>  (205) 
CN(C(=O)c1ccc(O)cc1)c1nc(Cn2ccccc2=O)no1

$$$$
cx1417a-cx1410a
     RDKit          3D

 15 16  0  0  0  0  0  0  0  0999 V2000
   16.3059    7.2341   15.1921 C   0  0  0  0  0  0  0  0  0  0  0  0
   14.9725    9.1124   14.4625 O   0  0  0  0  0  0  0  0  0  0  0  0
   14.9176    7.8348   15.0782 C   0  0  0  0  0  0  0  0  0  0  0  0
   14.7002   12.0467   14.7356 C   0  0  0  0  0  0  0  0  0  0  0  0
   14.8558    6.9584   12.4001 O   0  0  0  0  0  0  0  0  0  0  0  0
   14.7661   14.0668   12.6028 N   0  0  0  0  0  0  0  0  0  0  0  0
   14.6489   12.6882   12.3184 N   0  0  0  0  0  0  0  0  0  0  0  0
   14.6993   11.7252   13.2892 C   0  0  0  0  0  0  0  0  0  0  0  0
   14.7955   10.5462   12.5835 C   0  0  0  0  0  0  0  0  0  0  0  0
   14.7449   10.8998   11.1829 C   0  0  0  0  0  0  0  0  0  0  0  0
   14.6264   12.2260   11.0743 N   0  0  0  0  0  0  0  0  0  0  0  0
   14.7850    9.9201   10.1722 C   0  0  0  0  0  0  0  0  0  0  0  0
   14.7969    8.6014   10.6723 C   0  0  0  0  0  0  0  0  0  0  0  0
   14.8340    8.2895   12.0789 C   0  0  0  0  0  0  0  0  0  0  0  0
   14.8812    9.2528   13.1212 C   0  0  0  0  0  0  0  0  0  0  0  0
  3  2  1  0
  3  1  1  0
  7  8  1  0
  7 11  1  0
  8  9  2  0
  8  4  1  0
  9 10  1  0
 10 11  2  0
 12 13  2  0
 13 14  1  0
 14 15  2  0
 10 12  1  0
  9 15  1  0
 15  2  1  0
  5 14  1  0
  6  7  1  0
M  END
>  <generation_date>  (206) 
None

>  <inchikey>  (206) 
CYHOPNZSVSYBQM-UHFFFAOYSA-N

>  <ref_mols>  (206) 
cx1410a,cx1417a

>  <tags>  (206) 
['butcher: adenine', 'pure_merges', 'fragmenstein', 'select (HA) [batch2_adenine2]', 'raw']

>  <ref_pdb>  (206) 
cx0300a

>  <alias>  (206) 
cx1417a-cx1410a

>  <submitter_name>  (206) 
None

>  <HIPPO ID>  (206) 
2321

>  <original ID>  (206) 
cx1417a-cx1410a

>  <method>  (206) 
None

>  <ref_url>  (206) 
None

>  <submitter_email>  (206) 
None

>  <original SMILES>  (206) 
CCOc1c(O)ccc2nn(N)c(C)c12

$$$$
cx1417a-cx0300a
     RDKit          3D

 22 24  0  0  0  0  0  0  0  0999 V2000
   15.0954    6.5179   15.0983 C   0  0  0  0  0  0  0  0  0  0  0  0
   14.5548   13.2221   14.1128 C   0  0  0  0  0  0  0  0  0  0  0  0
   14.8575    9.6162   10.4348 C   0  0  0  0  0  0  0  0  0  0  0  0
   15.1545    5.8481   13.9070 N   0  0  0  0  0  0  0  0  0  0  0  0
   18.7853    4.4952   12.2082 O   0  0  0  0  0  0  0  0  0  0  0  0
   14.9988    5.9671   16.1898 O   0  0  0  0  0  0  0  0  0  0  0  0
   14.3553   13.0112   11.7177 N   0  0  0  0  0  0  0  0  0  0  0  0
   14.5692   12.3939   12.8819 C   0  0  0  0  0  0  0  0  0  0  0  0
   14.7857   10.9928   12.7087 C   0  0  0  0  0  0  0  0  0  0  0  0
   14.7324   10.7967   11.3350 C   0  0  0  0  0  0  0  0  0  0  0  0
   14.4501   12.0332   10.8047 N   0  0  0  0  0  0  0  0  0  0  0  0
   16.0876    3.6276   14.5846 C   0  0  0  0  0  0  0  0  0  0  0  0
   17.4839    3.9981   14.1038 C   0  0  0  0  0  0  0  0  0  0  0  0
   17.5999    3.8655   12.5878 C   0  0  1  0  0  0  0  0  0  0  0  0
   16.5496    4.5132   11.8290 N   0  0  0  0  0  0  0  0  0  0  0  0
   15.2287    4.0417   12.2837 C   0  0  0  0  0  0  0  0  0  0  0  0
   15.0300    4.3942   13.7712 C   0  0  2  0  0  0  0  0  0  0  0  0
   15.1784    8.8106   16.0238 C   0  0  0  0  0  0  0  0  0  0  0  0
   15.1113    7.9682   14.9364 C   0  0  0  0  0  0  0  0  0  0  0  0
   15.0503    8.6116   13.6814 N   0  0  0  0  0  0  0  0  0  0  0  0
   15.0048    9.9213   13.8611 C   0  0  0  0  0  0  0  0  0  0  0  0
   15.1784   10.4175   15.5052 S   0  0  0  0  0  0  0  0  0  0  0  0
  4  1  1  0
  6  1  2  0
  7  8  2  0
  7 11  1  0
  8  9  1  0
  8  2  1  0
  9 10  2  0
 10  3  1  0
 10 11  1  0
 12 17  1  0
 12 13  1  0
 13 14  1  0
 14 15  1  0
 14  5  1  6
 15 16  1  0
 16 17  1  0
 17  4  1  6
 18 19  2  0
 18 22  1  0
 19 20  1  0
 20 21  2  0
 21 22  1  0
 21  9  1  0
  1 19  1  0
M  END
>  <generation_date>  (207) 
None

>  <inchikey>  (207) 
WKWDUETUWZEBTK-KOLCDFICSA-N

>  <ref_mols>  (207) 
cx0300a,cx1417a

>  <tags>  (207) 
['butcher: adenine', 'pure_merges', 'fragmenstein', 'select (HA) [batch4_others]', 'butcher: oxyanion', 'raw']

>  <ref_pdb>  (207) 
cx0300a

>  <alias>  (207) 
cx1417a-cx0300a

>  <submitter_name>  (207) 
None

>  <HIPPO ID>  (207) 
2324

>  <original ID>  (207) 
cx1417a-cx0300a

>  <method>  (207) 
None

>  <ref_url>  (207) 
None

>  <submitter_email>  (207) 
None

>  <original SMILES>  (207) 
Cc1n[nH]c(C)c1-c1nc(C(=O)N[C@@H]2CC[C@H](O)NC2)cs1

$$$$
cx1417a-cx1299a
     RDKit          3D

 16 17  0  0  0  0  0  0  0  0999 V2000
   16.3971    7.2188   15.2550 C   0  0  0  0  0  0  0  0  0  0  0  0
   14.9606    9.0150   14.5088 O   0  0  0  0  0  0  0  0  0  0  0  0
   14.9835    7.7629   15.1752 C   0  0  0  0  0  0  0  0  0  0  0  0
   14.6570   11.9096   14.6832 C   0  0  0  0  0  0  0  0  0  0  0  0
   16.0243   12.0023   15.3414 C   0  0  0  0  0  0  0  0  0  0  0  0
   14.7095   13.8833   12.4658 N   0  0  0  0  0  0  0  0  0  0  0  0
   14.6772   12.4974   12.2258 N   0  0  0  0  0  0  0  0  0  0  0  0
   14.7258   11.5716   13.2325 C   0  0  0  0  0  0  0  0  0  0  0  0
   14.8291   10.3686   12.5693 C   0  0  0  0  0  0  0  0  0  0  0  0
   14.7823   10.6670   11.1569 C   0  0  0  0  0  0  0  0  0  0  0  0
   14.6778   11.9898   10.9971 N   0  0  0  0  0  0  0  0  0  0  0  0
   14.7996    9.6444   10.1886 C   0  0  0  0  0  0  0  0  0  0  0  0
   14.7882    8.3481   10.7472 C   0  0  0  0  0  0  0  0  0  0  0  0
   14.8310    8.0943   12.1636 C   0  0  0  0  0  0  0  0  0  0  0  0
   14.8918    9.0984   13.1618 C   0  0  0  0  0  0  0  0  0  0  0  0
   14.8269    6.7799   12.5421 O   0  0  0  0  0  0  0  0  0  0  0  0
  3  2  1  0
  3  1  1  0
  5  4  1  0
  7  8  1  0
  7 11  1  0
  8  9  2  0
  8  4  1  0
  9 10  1  0
 10 11  2  0
 12 13  2  0
 13 14  1  0
 14 15  2  0
 10 12  1  0
  9 15  1  0
 15  2  1  0
  6  7  1  0
 14 16  1  0
M  END
>  <generation_date>  (208) 
None

>  <inchikey>  (208) 
ZFLRBPWUUCTPDU-UHFFFAOYSA-N

>  <ref_mols>  (208) 
cx1299a,cx1417a

>  <tags>  (208) 
['butcher: adenine', 'pure_merges', 'fragmenstein', 'select (HA) [batch2_adenine2]', 'raw']

>  <ref_pdb>  (208) 
cx0300a

>  <alias>  (208) 
cx1417a-cx1299a

>  <submitter_name>  (208) 
None

>  <HIPPO ID>  (208) 
2326

>  <original ID>  (208) 
cx1417a-cx1299a

>  <method>  (208) 
None

>  <ref_url>  (208) 
None

>  <submitter_email>  (208) 
None

>  <original SMILES>  (208) 
CCOc1c(O)ccc2nn(N)c(CC)c12

$$$$
cx1417a-cx1445a
     RDKit          3D

 14 15  0  0  0  0  0  0  0  0999 V2000
   15.8573    8.1392   16.2540 C   0  0  0  0  0  0  0  0  0  0  0  0
   15.1316    9.1665   15.3828 C   0  0  0  0  0  0  0  0  0  0  0  0
   14.6329   12.1962   14.3989 C   0  0  0  0  0  0  0  0  0  0  0  0
   14.8962    8.7778   10.5232 C   0  0  0  0  0  0  0  0  0  0  0  0
   14.4987   12.0878   11.9932 N   0  0  0  0  0  0  0  0  0  0  0  0
   14.6748   11.4115   13.1403 C   0  0  0  0  0  0  0  0  0  0  0  0
   14.9116    9.9982   12.9171 C   0  0  0  0  0  0  0  0  0  0  0  0
   14.8313    9.8898   11.5252 C   0  0  0  0  0  0  0  0  0  0  0  0
   14.6647   11.1578   11.0765 N   0  0  0  0  0  0  0  0  0  0  0  0
   14.4514    7.4069   11.0026 C   0  0  0  0  0  0  0  0  0  0  0  0
   15.0671    6.8689   12.2782 C   0  0  0  0  0  0  0  0  0  0  0  0
   14.5457    7.5373   13.5470 C   0  0  0  0  0  0  0  0  0  0  0  0
   15.2518    8.8621   13.8818 C   0  0  2  0  0  0  0  0  0  0  0  0
   14.6183   11.5097    9.7650 O   0  0  0  0  0  0  0  0  0  0  0  0
  2  1  1  0
  5  6  2  0
  5  9  1  0
  6  7  1  0
  6  3  1  0
  7  8  2  0
  8  4  1  0
  8  9  1  0
 10 11  1  0
 11 12  1  0
 12 13  1  0
  7 13  1  0
 13  2  1  1
  4 10  1  0
  9 14  1  0
M  END
>  <generation_date>  (209) 
None

>  <inchikey>  (209) 
PQKNEXGVROLRJV-VIFPVBQESA-N

>  <ref_mols>  (209) 
cx1445a,cx1417a

>  <tags>  (209) 
['butcher: adenine', 'pure_merges', 'fragmenstein', 'select (HA) [batch2_adenine2]', 'raw']

>  <ref_pdb>  (209) 
cx0300a

>  <alias>  (209) 
cx1417a-cx1445a

>  <submitter_name>  (209) 
None

>  <HIPPO ID>  (209) 
2327

>  <original ID>  (209) 
cx1417a-cx1445a

>  <method>  (209) 
None

>  <ref_url>  (209) 
None

>  <submitter_email>  (209) 
None

>  <original SMILES>  (209) 
CC[C@H]1CCCCc2c1c(C)nn2O

$$$$
cx1417a-cx0406a
     RDKit          3D

 19 20  0  0  0  0  0  0  0  0999 V2000
   15.9934    7.9488   16.4040 C   0  0  0  0  0  0  0  0  0  0  0  0
   15.5769    8.9617   14.2998 O   0  0  0  0  0  0  0  0  0  0  0  0
   14.9210    8.3947   15.4319 C   0  0  0  0  0  0  0  0  0  0  0  0
   14.9347    8.9146   13.1107 C   0  0  0  0  0  0  0  0  0  0  0  0
   14.6790   11.9102   14.5155 C   0  0  0  0  0  0  0  0  0  0  0  0
   14.8734    9.6271    9.9124 C   0  0  0  0  0  0  0  0  0  0  0  0
   14.5661    7.9016   12.4339 N   0  0  0  0  0  0  0  0  0  0  0  0
   11.6044    6.8905   13.5019 O   0  0  0  0  0  0  0  0  0  0  0  0
   12.1235    6.0555   12.4772 C   0  0  0  0  0  0  0  0  0  0  0  0
   14.4410   12.3512   12.1025 N   0  0  0  0  0  0  0  0  0  0  0  0
   14.6623   11.4613   13.1095 C   0  0  0  0  0  0  0  0  0  0  0  0
   14.7988   10.2265   12.4895 C   0  0  0  0  0  0  0  0  0  0  0  0
   14.7699   10.5375   11.0888 C   0  0  0  0  0  0  0  0  0  0  0  0
   14.5811   11.8438   10.8814 N   0  0  0  0  0  0  0  0  0  0  0  0
   15.8746    5.9550   13.3827 C   0  0  0  0  0  0  0  0  0  0  0  0
   14.7503    6.4696   12.4948 C   0  0  1  0  0  0  0  0  0  0  0  0
   13.5345    5.5730   12.7927 C   0  0  1  0  0  0  0  0  0  0  0  0
   13.7349    5.1179   14.2310 C   0  0  0  0  0  0  0  0  0  0  0  0
   15.2409    5.0004   14.3933 C   0  0  0  0  0  0  0  0  0  0  0  0
  3  2  1  0
  3  1  1  0
  4  2  1  0
  7  4  2  0
  9  8  1  0
 10 11  1  0
 10 14  1  0
 11 12  2  0
 11  5  1  0
 12  4  1  0
 12 13  1  0
 13  6  1  0
 13 14  2  0
 15 16  1  0
 15 19  1  0
 16 17  1  0
 17 18  1  0
 17  9  1  1
 18 19  1  0
 16  7  1  1
M  END
>  <generation_date>  (210) 
None

>  <inchikey>  (210) 
BMYRXEILJCLAHE-FXPBBYGFSA-N

>  <ref_mols>  (210) 
cx0406a,cx1417a

>  <tags>  (210) 
['butcher: adenine', 'select (DF) [batch4_others]', 'pure_merges', 'butcher: phosphate', 'fragmenstein', 'select (HA) [batch4_others]', 'butcher: oxyanion', 'raw']

>  <ref_pdb>  (210) 
cx0300a

>  <alias>  (210) 
cx1417a-cx0406a

>  <submitter_name>  (210) 
None

>  <HIPPO ID>  (210) 
2329

>  <original ID>  (210) 
cx1417a-cx0406a

>  <method>  (210) 
None

>  <ref_url>  (210) 
None

>  <submitter_email>  (210) 
None

>  <original SMILES>  (210) 
CCO/C(=N\[C@H]1CCC[C@H]1CO)c1c(C)n[nH]c1C

$$$$
cx1417a-cx0316a
     RDKit          3D

 26 28  0  0  0  0  0  0  0  0999 V2000
   16.5788    7.9338   15.6699 C   0  0  0  0  0  0  0  0  0  0  0  0
   15.1302    9.6247   14.6592 O   0  0  0  0  0  0  0  0  0  0  0  0
   15.1995    8.5710   15.6319 C   0  0  0  0  0  0  0  0  0  0  0  0
   15.0385    9.1968   13.3665 C   0  0  0  0  0  0  0  0  0  0  0  0
   14.4749   12.3963   13.8820 C   0  0  0  0  0  0  0  0  0  0  0  0
   15.0734    8.9792   10.0432 C   0  0  0  0  0  0  0  0  0  0  0  0
   15.0658    8.0157   13.0533 O   0  0  0  0  0  0  0  0  0  0  0  0
   18.2233    4.5997   11.9988 O   0  0  0  0  0  0  0  0  0  0  0  0
   13.9501    7.9937   10.2373 C   0  0  0  0  0  0  0  0  0  0  0  0
   15.7243    3.5561   11.2903 C   0  0  0  0  0  0  0  0  0  0  0  0
   14.4059   12.1587   11.4054 N   0  0  0  0  0  0  0  0  0  0  0  0
   14.6114   11.6067   12.6361 C   0  0  0  0  0  0  0  0  0  0  0  0
   14.8867   10.2678   12.3925 C   0  0  0  0  0  0  0  0  0  0  0  0
   14.9101   10.1654   10.9546 C   0  0  0  0  0  0  0  0  0  0  0  0
   14.6713   11.3450   10.3864 N   0  0  0  0  0  0  0  0  0  0  0  0
   15.2435    5.9889   10.9911 N   0  0  0  0  0  0  0  0  0  0  0  0
   14.2867    6.5841   10.3265 C   0  0  0  0  0  0  0  0  0  0  0  0
   13.4276    5.7387    9.7036 O   0  0  0  0  0  0  0  0  0  0  0  0
   13.8766    4.4657    9.9911 N   0  0  0  0  0  0  0  0  0  0  0  0
   14.9160    4.6793   10.8045 C   0  0  0  0  0  0  0  0  0  0  0  0
   15.4560    3.1744   13.7127 C   0  0  0  0  0  0  0  0  0  0  0  0
   16.1979    3.6939   12.6696 N   0  0  0  0  0  0  0  0  0  0  0  0
   17.4594    4.2271   12.8802 C   0  0  0  0  0  0  0  0  0  0  0  0
   17.9135    4.3125   14.2945 C   0  0  0  0  0  0  0  0  0  0  0  0
   17.1603    3.8087   15.2780 C   0  0  0  0  0  0  0  0  0  0  0  0
   15.8959    3.2005   14.9746 C   0  0  0  0  0  0  0  0  0  0  0  0
  3  2  1  0
  3  1  1  0
  4  2  1  0
  7  4  2  0
  9  6  1  0
 11 12  1  0
 11 15  1  0
 12 13  2  0
 12  5  1  0
 13  4  1  0
 13 14  1  0
 14  6  1  0
 14 15  2  0
 16 17  2  0
 16 20  1  0
 17  9  1  0
 17 18  1  0
 18 19  1  0
 19 20  2  0
 20 10  1  0
 21 26  2  0
 21 22  1  0
 22 10  1  0
 22 23  1  0
 23 24  1  0
 23  8  2  0
 24 25  2  0
 25 26  1  0
M  END
>  <generation_date>  (211) 
None

>  <inchikey>  (211) 
WPJNMRJPBHMZLH-UHFFFAOYSA-N

>  <ref_mols>  (211) 
cx1417a,cx0316a

>  <tags>  (211) 
['butcher: adenine', 'pure_merges', 'fragmenstein', 'select (HA) [batch4_others]', 'butcher: oxyanion', 'raw']

>  <ref_pdb>  (211) 
cx0300a

>  <alias>  (211) 
cx1417a-cx0316a

>  <submitter_name>  (211) 
None

>  <HIPPO ID>  (211) 
2332

>  <original ID>  (211) 
cx1417a-cx0316a

>  <method>  (211) 
None

>  <ref_url>  (211) 
None

>  <submitter_email>  (211) 
None

>  <original SMILES>  (211) 
CCOC(=O)c1c(CCc2nc(Cn3ccccc3=O)no2)n[nH]c1C

$$$$
cx1417a-cx1268a
     RDKit          3D

 14 14  0  0  0  0  0  0  0  0999 V2000
   16.5732    7.5692   15.6420 C   0  0  0  0  0  0  0  0  0  0  0  0
   15.0310    9.2859   14.8813 O   0  0  0  0  0  0  0  0  0  0  0  0
   15.1434    8.0773   15.6426 C   0  0  0  0  0  0  0  0  0  0  0  0
   14.9699    9.1198   13.5295 C   0  0  0  0  0  0  0  0  0  0  0  0
   14.6132   12.2117   14.7138 C   0  0  0  0  0  0  0  0  0  0  0  0
   14.9158    9.5964   10.3104 C   0  0  0  0  0  0  0  0  0  0  0  0
   15.0645    8.0307   12.9825 O   0  0  0  0  0  0  0  0  0  0  0  0
   15.4381   10.1730    9.1948 N   0  0  0  0  0  0  0  0  0  0  0  0
   14.6004    8.4138   10.3116 O   0  0  0  0  0  0  0  0  0  0  0  0
   14.3721   12.4553   12.2782 N   0  0  0  0  0  0  0  0  0  0  0  0
   14.6057   11.6481   13.3479 C   0  0  0  0  0  0  0  0  0  0  0  0
   14.7892   10.3742   12.8224 C   0  0  0  0  0  0  0  0  0  0  0  0
   14.7684   10.5693   11.4084 C   0  0  0  0  0  0  0  0  0  0  0  0
   14.5707   11.8698   11.1019 N   0  0  0  0  0  0  0  0  0  0  0  0
  3  2  1  0
  3  1  1  0
  4  2  1  0
  7  4  2  0
  8  6  1  0
  9  6  2  0
 10 11  1  0
 10 14  1  0
 11 12  2  0
 11  5  1  0
 12  4  1  0
 12 13  1  0
 13  6  1  0
 13 14  2  0
M  END
>  <generation_date>  (212) 
None

>  <inchikey>  (212) 
XWFSLLRUMDZKFF-UHFFFAOYSA-N

>  <ref_mols>  (212) 
cx1417a,cx1268a

>  <tags>  (212) 
['butcher: adenine', 'pure_merges', 'fragmenstein', 'select (HA) [batch2_adenine2]', 'raw']

>  <ref_pdb>  (212) 
cx0300a

>  <alias>  (212) 
cx1417a-cx1268a

>  <submitter_name>  (212) 
None

>  <HIPPO ID>  (212) 
2333

>  <original ID>  (212) 
cx1417a-cx1268a

>  <method>  (212) 
None

>  <ref_url>  (212) 
None

>  <submitter_email>  (212) 
None

>  <original SMILES>  (212) 
CCOC(=O)c1c(C(N)=O)n[nH]c1C

$$$$
cx0399a-cx1338a
     RDKit          3D

 16 18  0  0  0  0  0  0  0  0999 V2000
   15.4584    9.4941    9.3287 C   0  0  0  0  0  0  0  0  0  0  0  0
   15.1794   11.7642   10.8322 O   0  0  0  0  0  0  0  0  0  0  0  0
   15.0240   10.7031   13.0546 C   0  0  0  0  0  0  0  0  0  0  0  0
   14.9564   12.0080   13.6484 C   0  0  0  0  0  0  0  0  0  0  0  0
   15.0970   12.2994   14.9966 C   0  0  0  0  0  0  0  0  0  0  0  0
   15.2827   11.2361   15.8767 C   0  0  0  0  0  0  0  0  0  0  0  0
   15.3022    9.9385   15.3556 C   0  0  0  0  0  0  0  0  0  0  0  0
   15.1548    9.6420   13.9761 C   0  0  0  0  0  0  0  0  0  0  0  0
   15.0374   13.7133   15.1537 C   0  0  0  0  0  0  0  0  0  0  0  0
   14.7768   13.2309   13.0211 N   0  0  0  0  0  0  0  0  0  0  0  0
   14.8823   14.2653   13.9057 C   0  0  0  0  0  0  0  0  0  0  0  0
   15.2657    8.1664   13.6546 C   0  0  0  0  0  0  0  0  0  0  0  0
   14.4682    7.5244   12.5381 C   0  0  0  0  0  0  0  0  0  0  0  0
   14.8637    7.8987   11.1307 C   0  0  0  0  0  0  0  0  0  0  0  0
   14.7155    9.3466   10.6449 C   0  0  1  0  0  0  0  0  0  0  0  0
   14.7437   10.6078   11.5717 C   0  0  2  0  0  0  0  0  0  0  0  0
  3  8  1  0
  3  4  2  0
  4  5  1  0
  4 10  1  0
  5  6  2  0
  5  9  1  0
  6  7  1  0
  7  8  2  0
  9 11  2  0
 10 11  1  0
 12 13  1  0
 13 14  1  0
 14 15  1  0
 15 16  1  0
  8 12  1  0
 15  1  1  6
 16  2  1  6
 16  3  1  0
M  END
>  <generation_date>  (213) 
None

>  <inchikey>  (213) 
YAQMPFPCOKONTE-XPTSAGLGSA-N

>  <ref_mols>  (213) 
cx1338a,cx0399a

>  <tags>  (213) 
['butcher: adenine', 'pure_merges', 'fragmenstein', 'select (DF) [batch2_adenine2]', 'raw']

>  <ref_pdb>  (213) 
cx0300a

>  <alias>  (213) 
cx0399a-cx1338a

>  <submitter_name>  (213) 
None

>  <HIPPO ID>  (213) 
2336

>  <original ID>  (213) 
cx0399a-cx1338a

>  <method>  (213) 
None

>  <ref_url>  (213) 
None

>  <submitter_email>  (213) 
None

>  <original SMILES>  (213) 
C[C@H]1CCCc2ccc3cc[nH]c3c2[C@H]1O

$$$$
cx0399a-cx0404a_copy
     RDKit          3D

 17 18  0  0  0  0  0  0  0  0999 V2000
   15.0276    9.6407   10.8537 N   0  0  0  0  0  0  0  0  0  0  0  0
   14.8223    9.3759    9.4448 C   0  0  0  0  0  0  0  0  0  0  0  0
   14.3590   11.7821   10.5407 N   0  0  0  0  0  0  0  0  0  0  0  0
   14.7048   10.8745   11.4142 C   0  0  0  0  0  0  0  0  0  0  0  0
   15.9573    6.7693   14.7627 C   0  0  0  0  0  0  0  0  0  0  0  0
   14.7935    7.4763   15.1716 O   0  0  0  0  0  0  0  0  0  0  0  0
   15.0972    8.6486   15.9378 C   0  0  0  0  0  0  0  0  0  0  0  0
   13.6978   12.8889   10.8820 N   0  0  0  0  0  0  0  0  0  0  0  0
   14.7455   11.0167   12.9232 C   0  0  0  0  0  0  0  0  0  0  0  0
   14.8359   12.2373   13.6126 C   0  0  0  0  0  0  0  0  0  0  0  0
   15.0275   12.3458   14.9882 C   0  0  0  0  0  0  0  0  0  0  0  0
   15.1211   11.1675   15.7505 C   0  0  0  0  0  0  0  0  0  0  0  0
   15.0009    9.9189   15.1215 C   0  0  0  0  0  0  0  0  0  0  0  0
   14.8162    9.8721   13.7362 C   0  0  0  0  0  0  0  0  0  0  0  0
   15.1151   13.7339   15.3036 C   0  0  0  0  0  0  0  0  0  0  0  0
   14.8369   13.5243   13.1345 N   0  0  0  0  0  0  0  0  0  0  0  0
   15.0068   14.4394   14.1289 C   0  0  0  0  0  0  0  0  0  0  0  0
  2  1  1  0
  4  1  1  0
  4  3  2  0
  6  5  1  0
  7  6  1  0
  8  3  1  0
  9  4  1  0
  9 14  2  0
  9 10  1  0
 10 11  2  0
 10 16  1  0
 11 12  1  0
 11 15  1  0
 12 13  2  0
 13 14  1  0
 15 17  2  0
 16 17  1  0
  7 13  1  0
M  END
>  <generation_date>  (214) 
None

>  <inchikey>  (214) 
MARKGWABDNPQBB-UHFFFAOYSA-N

>  <ref_mols>  (214) 
cx0404a,cx0399a

>  <tags>  (214) 
['butcher: adenine', 'pure_merges', 'fragmenstein', 'select (HA) [batch2_adenine2]', 'raw']

>  <ref_pdb>  (214) 
cx0300a

>  <alias>  (214) 
cx0399a-cx0404a_copy

>  <submitter_name>  (214) 
None

>  <HIPPO ID>  (214) 
2339

>  <original ID>  (214) 
cx0399a-cx0404a_copy

>  <method>  (214) 
None

>  <ref_url>  (214) 
None

>  <submitter_email>  (214) 
None

>  <original SMILES>  (214) 
CN/C(=N/N)c1cc(COC)cc2cc[nH]c12

$$$$
cx0399a-cx0300a
     RDKit          3D

 26 29  0  0  0  0  0  0  0  0999 V2000
   14.8967    9.6840   10.8746 N   0  0  0  0  0  0  0  0  0  0  0  0
   14.7600    9.3774    9.4770 C   0  0  0  0  0  0  0  0  0  0  0  0
   14.5672   11.9107   10.5834 O   0  0  0  0  0  0  0  0  0  0  0  0
   14.7552   10.9707   11.3423 C   0  0  0  0  0  0  0  0  0  0  0  0
   15.2396    5.9496   13.9086 N   0  0  0  0  0  0  0  0  0  0  0  0
   14.9031    6.7320   14.9826 C   0  0  0  0  0  0  0  0  0  0  0  0
   14.5919    6.3165   16.0883 O   0  0  0  0  0  0  0  0  0  0  0  0
   18.5729    3.7750   11.7419 O   0  0  0  0  0  0  0  0  0  0  0  0
   14.8191   11.1483   12.8238 C   0  0  0  0  0  0  0  0  0  0  0  0
   14.8350   12.5341   13.4108 C   0  0  0  0  0  0  0  0  0  0  0  0
   14.9903   12.6892   14.8917 C   0  0  0  0  0  0  0  0  0  0  0  0
   15.0780   11.6552   15.7277 C   0  0  0  0  0  0  0  0  0  0  0  0
   14.9957   10.3444   15.1446 C   0  0  0  0  0  0  0  0  0  0  0  0
   14.9014   10.1245   13.7069 C   0  0  0  0  0  0  0  0  0  0  0  0
   15.0317   14.0963   15.1052 C   0  0  0  0  0  0  0  0  0  0  0  0
   14.7866   13.7187   12.8461 N   0  0  0  0  0  0  0  0  0  0  0  0
   14.9112   14.6306   13.8835 C   0  0  0  0  0  0  0  0  0  0  0  0
   16.3551    3.8667   14.6534 C   0  0  0  0  0  0  0  0  0  0  0  0
   17.6574    4.1605   13.9204 C   0  0  0  0  0  0  0  0  0  0  0  0
   17.5754    3.9862   12.4202 C   0  0  0  0  0  0  0  0  0  0  0  0
   16.3673    4.1884   11.8129 N   0  0  0  0  0  0  0  0  0  0  0  0
   15.1227    3.9417   12.5084 C   0  0  0  0  0  0  0  0  0  0  0  0
   15.1576    4.4937   13.9338 C   0  0  2  0  0  0  0  0  0  0  0  0
   15.0029    9.1829   15.8028 C   0  0  0  0  0  0  0  0  0  0  0  0
   14.9300    8.2269   14.6970 C   0  0  0  0  0  0  0  0  0  0  0  0
   14.8947    8.7483   13.4922 N   0  0  0  0  0  0  0  0  0  0  0  0
  2  1  1  0
  4  1  1  0
  4  3  2  0
  6  5  1  0
  7  6  2  0
  9  4  1  0
  9 14  2  0
  9 10  1  0
 10 11  1  0
 10 16  2  0
 11 12  2  0
 11 15  1  0
 12 13  1  0
 13 14  1  0
 15 17  2  0
 16 17  1  0
 18 23  1  0
 18 19  1  0
 19 20  1  0
 20 21  1  0
 20  8  2  0
 21 22  1  0
 22 23  1  0
 23  5  1  6
 24 25  1  0
 25  6  1  0
 25 26  2  0
 13 24  2  0
 14 26  1  0
M  END
>  <generation_date>  (215) 
None

>  <inchikey>  (215) 
ZZDYVGCKMGXMDI-LLVKDONJSA-N

>  <ref_mols>  (215) 
cx0300a,cx0399a

>  <tags>  (215) 
['butcher: adenine', 'select (DF) [batch4_others]', 'pure_merges', 'fragmenstein', 'select (HA) [batch4_others]', 'butcher: oxyanion', 'raw']

>  <ref_pdb>  (215) 
cx0300a

>  <alias>  (215) 
cx0399a-cx0300a

>  <submitter_name>  (215) 
None

>  <HIPPO ID>  (215) 
2344

>  <original ID>  (215) 
cx0399a-cx0300a

>  <method>  (215) 
None

>  <ref_url>  (215) 
None

>  <submitter_email>  (215) 
None

>  <original SMILES>  (215) 
CNC(=O)c1c2c(cc3c1=NC=C3)=CC(C(=O)N[C@@H]1CCC(=O)NC1)=N2

$$$$
cx1454a-cx1203a
     RDKit          3D

 12 13  0  0  0  0  0  0  0  0999 V2000
   14.1999   13.1151   11.6429 N   0  0  0  0  0  0  0  0  0  0  0  0
   14.6138   12.5211   14.4821 C   0  0  0  0  0  0  0  0  0  0  0  0
   14.7193   10.9536   11.0454 N   0  0  0  0  0  0  0  0  0  0  0  0
   14.5933   11.8368   12.0508 C   0  0  0  0  0  0  0  0  0  0  0  0
   14.7006   11.5022   13.3980 C   0  0  0  0  0  0  0  0  0  0  0  0
   14.8958   10.1636   13.7177 C   0  0  0  0  0  0  0  0  0  0  0  0
   14.9011    9.2122   12.7026 C   0  0  0  0  0  0  0  0  0  0  0  0
   14.8142    9.6550   11.3598 C   0  0  0  0  0  0  0  0  0  0  0  0
   14.7071    8.6951   10.3615 C   0  0  0  0  0  0  0  0  0  0  0  0
   14.6346    7.3378   10.6889 C   0  0  0  0  0  0  0  0  0  0  0  0
   14.7893    6.9099   12.0012 C   0  0  0  0  0  0  0  0  0  0  0  0
   14.9350    7.8468   13.0124 C   0  0  0  0  0  0  0  0  0  0  0  0
  3  8  2  0
  3  4  1  0
  4  5  2  0
  4  1  1  0
  5  6  1  0
  6  7  2  0
  7  8  1  0
  9 10  2  0
 10 11  1  0
 11 12  2  0
  8  9  1  0
  7 12  1  0
  2  5  1  0
M  END
>  <generation_date>  (216) 
None

>  <inchikey>  (216) 
NCZOVCDTUUZEEA-UHFFFAOYSA-N

>  <ref_mols>  (216) 
cx1203a,cx1454a

>  <tags>  (216) 
['butcher: adenine', 'pure_merges', 'fragmenstein', 'select (HA) [batch2_adenine2]', 'raw']

>  <ref_pdb>  (216) 
cx0300a

>  <alias>  (216) 
cx1454a-cx1203a

>  <submitter_name>  (216) 
None

>  <HIPPO ID>  (216) 
2361

>  <original ID>  (216) 
cx1454a-cx1203a

>  <method>  (216) 
None

>  <ref_url>  (216) 
None

>  <submitter_email>  (216) 
None

>  <original SMILES>  (216) 
Cc1cc2ccccc2nc1N

$$$$
cx1454a-cx0553a
     RDKit          3D

 15 15  0  0  0  0  0  0  0  0999 V2000
   14.9111    9.6443    9.6067 C   0  0  0  0  0  0  0  0  0  0  0  0
   14.3031   13.5546   12.1884 N   0  0  0  0  0  0  0  0  0  0  0  0
   14.8968    8.0364   12.0274 C   0  0  0  0  0  0  0  0  0  0  0  0
   14.6653   12.2939   14.7255 C   0  0  0  0  0  0  0  0  0  0  0  0
   14.9586    6.8450   11.9168 C   0  0  0  0  0  0  0  0  0  0  0  0
   14.7015   11.5905   11.0237 N   0  0  0  0  0  0  0  0  0  0  0  0
   14.6409   12.1933   12.2181 C   0  0  0  0  0  0  0  0  0  0  0  0
   14.6778   11.5041   13.4416 C   0  0  0  0  0  0  0  0  0  0  0  0
   14.7854   10.1002   13.4048 C   0  0  0  0  0  0  0  0  0  0  0  0
   14.8498    9.4686   12.1424 C   0  0  0  0  0  0  0  0  0  0  0  0
   14.8361   10.2505   10.9804 C   0  0  0  0  0  0  0  0  0  0  0  0
   16.9436   10.1738   15.5278 O   0  0  0  0  0  0  0  0  0  0  0  0
   14.8494    9.2837   14.6774 C   0  0  0  0  0  0  0  0  0  0  0  0
   16.2548    9.1994   15.2410 C   0  0  0  0  0  0  0  0  0  0  0  0
   16.7373    7.9349   15.4175 N   0  0  0  0  0  0  0  0  0  0  0  0
  5  3  3  0
  6 11  2  0
  6  7  1  0
  7  8  2  0
  7  2  1  0
  8  9  1  0
  9 10  2  0
 10 11  1  0
 10  3  1  0
 11  1  1  0
  8  4  1  0
 14 13  1  0
 14 12  2  0
 15 14  1  0
  9 13  1  0
M  END
>  <generation_date>  (217) 
None

>  <inchikey>  (217) 
BMGQHBWGLDDFQB-UHFFFAOYSA-N

>  <ref_mols>  (217) 
cx0553a,cx1454a

>  <tags>  (217) 
['butcher: adenine', 'pure_merges', 'fragmenstein', 'select (HA) [batch2_adenine2]', 'raw']

>  <ref_pdb>  (217) 
cx0300a

>  <alias>  (217) 
cx1454a-cx0553a

>  <submitter_name>  (217) 
None

>  <HIPPO ID>  (217) 
2364

>  <original ID>  (217) 
cx1454a-cx0553a

>  <method>  (217) 
None

>  <ref_url>  (217) 
None

>  <submitter_email>  (217) 
None

>  <original SMILES>  (217) 
C#Cc1c(C)nc(N)c(C)c1CC(N)=O

$$$$
cx1454a-cx0406a
     RDKit          3D

 16 17  0  0  0  0  0  0  0  0999 V2000
   14.8967    9.1539    9.5433 C   0  0  0  0  0  0  0  0  0  0  0  0
   14.5520   13.1966   11.8619 N   0  0  0  0  0  0  0  0  0  0  0  0
   14.7930    7.7302   11.9780 O   0  0  0  0  0  0  0  0  0  0  0  0
   11.3729    6.4682   13.2838 O   0  0  0  0  0  0  0  0  0  0  0  0
   12.1487    5.8592   12.2581 C   0  0  0  0  0  0  0  0  0  0  0  0
   14.7542   11.1680   10.8434 N   0  0  0  0  0  0  0  0  0  0  0  0
   14.6414   11.8172   12.0065 C   0  0  0  0  0  0  0  0  0  0  0  0
   14.6753   11.2058   13.2405 C   0  0  0  0  0  0  0  0  0  0  0  0
   14.7855    9.8216   13.2742 C   0  0  0  0  0  0  0  0  0  0  0  0
   14.8077    9.0981   12.0748 C   0  0  0  0  0  0  0  0  0  0  0  0
   14.8317    9.8221   10.8768 C   0  0  0  0  0  0  0  0  0  0  0  0
   15.4360    6.5425   13.9855 C   0  0  0  0  0  0  0  0  0  0  0  0
   14.2836    7.0273   13.1106 C   0  0  2  0  0  0  0  0  0  0  0  0
   13.6093    5.7101   12.6939 C   0  0  1  0  0  0  0  0  0  0  0  0
   13.7717    4.8120   13.9306 C   0  0  0  0  0  0  0  0  0  0  0  0
   14.7726    5.4966   14.8553 C   0  0  0  0  0  0  0  0  0  0  0  0
  5  4  1  0
  6 11  2  0
  6  7  1  0
  7  8  2  0
  7  2  1  0
  8  9  1  0
  9 10  2  0
 10 11  1  0
 10  3  1  0
 11  1  1  0
 12 13  1  0
 12 16  1  0
 13 14  1  0
 14 15  1  0
 14  5  1  1
 15 16  1  0
 13  3  1  6
M  END
>  <generation_date>  (218) 
None

>  <inchikey>  (218) 
KGYDYSJSBNBVTO-GXSJLCMTSA-N

>  <ref_mols>  (218) 
cx0406a,cx1454a

>  <tags>  (218) 
['butcher: adenine', 'select (DF) [batch4_others]', 'pure_merges', 'butcher: phosphate', 'fragmenstein', 'butcher: oxyanion', 'raw']

>  <ref_pdb>  (218) 
cx0300a

>  <alias>  (218) 
cx1454a-cx0406a

>  <submitter_name>  (218) 
None

>  <HIPPO ID>  (218) 
2367

>  <original ID>  (218) 
cx1454a-cx0406a

>  <method>  (218) 
None

>  <ref_url>  (218) 
None

>  <submitter_email>  (218) 
None

>  <original SMILES>  (218) 
Cc1nc(N)ccc1O[C@@H]1CCC[C@H]1CO

$$$$
cx1091a-cx0620a
     RDKit          3D

 23 26  0  0  0  0  0  0  0  0999 V2000
   18.1966    4.0388   11.8247 O   0  0  0  0  0  0  0  0  0  0  0  0
   15.2784    3.8679   10.9348 C   0  0  0  0  0  0  0  0  0  0  0  0
   14.3124    5.0360   10.8198 C   0  0  0  0  0  0  0  0  0  0  0  0
   13.8401    5.1496    9.4863 O   0  0  0  0  0  0  0  0  0  0  0  0
   16.9875    2.6710   18.2609 C   0  0  0  0  0  0  0  0  0  0  0  0
   15.8544    3.7365   12.2955 C   0  0  0  0  0  0  0  0  0  0  0  0
   15.2630    3.5245   13.4771 C   0  0  0  0  0  0  0  0  0  0  0  0
   16.2282    3.3436   14.5102 C   0  0  0  0  0  0  0  0  0  0  0  0
   17.4623    3.4935   14.0290 C   0  0  0  0  0  0  0  0  0  0  0  0
   17.2994    3.7846   12.6014 C   0  0  0  0  0  0  0  0  0  0  0  0
   18.7068    3.3115   14.7917 C   0  0  0  0  0  0  0  0  0  0  0  0
   18.4323    2.6264   16.1364 C   0  0  0  0  0  0  0  0  0  0  0  0
   17.1743    3.1867   16.8227 C   0  0  1  0  0  0  0  0  0  0  0  0
   15.9333    2.9882   15.9270 C   0  0  0  0  0  0  0  0  0  0  0  0
   18.7414   -1.5842   18.1276 C   0  0  0  0  0  0  0  0  0  0  0  0
   17.8007   -2.5334   18.5156 C   0  0  0  0  0  0  0  0  0  0  0  0
   16.5003   -2.1452   18.8476 C   0  0  0  0  0  0  0  0  0  0  0  0
   16.1418   -0.7918   18.7634 C   0  0  0  0  0  0  0  0  0  0  0  0
   17.1016    0.1439   18.3794 C   0  0  0  0  0  0  0  0  0  0  0  0
   18.4174   -0.2242   18.0726 C   0  0  0  0  0  0  0  0  0  0  0  0
   15.1612    1.0964   18.8665 C   0  0  0  0  0  0  0  0  0  0  0  0
   16.4371    1.3448   18.4348 N   0  0  0  0  0  0  0  0  0  0  0  0
   14.9440   -0.1837   19.0455 N   0  0  0  0  0  0  0  0  0  0  0  0
  3  2  1  0
  4  3  1  0
  6 10  1  0
  6  2  1  0
  6  7  2  0
  7  8  1  0
  9 10  1  0
 10  1  2  0
 11 12  1  0
 12 13  1  0
 13 14  1  0
 13  5  1  1
 15 20  2  0
 15 16  1  0
 16 17  2  0
 17 18  1  0
 18 19  2  0
 18 23  1  0
 19 20  1  0
 19 22  1  0
 21 22  1  0
 21 23  2  0
 22  5  1  0
  8 14  1  0
  9 11  1  0
  9  8  2  0
M  END
>  <generation_date>  (219) 
None

>  <inchikey>  (219) 
BELKKHSDFULCLW-ZDUSSCGKSA-N

>  <ref_mols>  (219) 
cx0620a,cx1091a

>  <tags>  (219) 
['pure_merges', 'fragmenstein', 'butcher: oxyanion', 'select (HA) [batch3_oxyanion]', 'raw']

>  <ref_pdb>  (219) 
cx0300a

>  <alias>  (219) 
cx1091a-cx0620a

>  <submitter_name>  (219) 
None

>  <HIPPO ID>  (219) 
2375

>  <original ID>  (219) 
cx1091a-cx0620a

>  <method>  (219) 
None

>  <ref_url>  (219) 
None

>  <submitter_email>  (219) 
None

>  <original SMILES>  (219) 
O=C1C(CCO)=CC2=C1CC[C@H](Cn1cnc3ccccc31)C2

$$$$
cx1091a-cx0522a
     RDKit          3D

 23 25  0  0  0  0  0  0  0  0999 V2000
   18.1485    3.9649   11.5930 O   0  0  0  0  0  0  0  0  0  0  0  0
   15.3412    3.7526   11.2250 C   0  0  0  0  0  0  0  0  0  0  0  0
   14.6835    5.1149   11.0421 C   0  0  0  0  0  0  0  0  0  0  0  0
   14.1218    5.2368    9.7364 O   0  0  0  0  0  0  0  0  0  0  0  0
   17.8819    1.7801   15.8347 N   0  0  0  0  0  0  0  0  0  0  0  0
   20.1070    1.7997   16.8696 C   0  0  0  0  0  0  0  0  0  0  0  0
   19.2399    1.1846   15.7875 C   0  0  0  0  0  0  0  0  0  0  0  0
   15.6427    3.0396   17.3112 C   0  0  0  0  0  0  0  0  0  0  0  0
   14.9976    5.0170   16.0520 C   0  0  0  0  0  0  0  0  0  0  0  0
   15.5082    3.6410   16.0605 N   0  0  0  0  0  0  0  0  0  0  0  0
   15.3126    3.6019   18.3593 O   0  0  0  0  0  0  0  0  0  0  0  0
   16.0531    3.5593   12.4954 N   0  0  0  0  0  0  0  0  0  0  0  0
   15.3738    3.4732   13.6951 C   0  0  0  0  0  0  0  0  0  0  0  0
   16.0003    3.1583   14.8520 C   0  0  0  0  0  0  0  0  0  0  0  0
   17.3641    2.6055   14.8049 C   0  0  0  0  0  0  0  0  0  0  0  0
   18.0601    2.9414   13.6982 C   0  0  0  0  0  0  0  0  0  0  0  0
   17.4373    3.5675   12.5059 C   0  0  0  0  0  0  0  0  0  0  0  0
   17.3550   -0.2716   16.9892 N   0  0  0  0  0  0  0  0  0  0  0  0
   16.6080   -0.9978   17.8527 C   0  0  0  0  0  0  0  0  0  0  0  0
   15.5577   -0.4758   18.5657 C   0  0  0  0  0  0  0  0  0  0  0  0
   15.2670    0.8620   18.3620 C   0  0  0  0  0  0  0  0  0  0  0  0
   15.9970    1.6216   17.4217 C   0  0  0  0  0  0  0  0  0  0  0  0
   17.0547    1.0409   16.7407 C   0  0  0  0  0  0  0  0  0  0  0  0
  3  2  1  0
  4  3  1  0
  7  6  1  0
  7  5  1  0
 10  9  1  0
 10  8  1  0
 11  8  2  0
 12 17  1  0
 12  2  1  0
 12 13  1  0
 13 14  2  0
 14 15  1  0
 15 16  2  0
 15  5  1  0
 16 17  1  0
 17  1  2  0
 18 23  2  0
 18 19  1  0
 19 20  2  0
 20 21  1  0
 21 22  2  0
 22 23  1  0
 22  8  1  0
 14 10  1  0
  5 23  1  0
M  END
>  <generation_date>  (220) 
None

>  <inchikey>  (220) 
XVEXVZRWLIBDHE-UHFFFAOYSA-N

>  <ref_mols>  (220) 
cx0522a,cx1091a

>  <tags>  (220) 
['pure_merges', 'fragmenstein', 'butcher: oxyanion', 'select (HA) [batch3_oxyanion]', 'raw']

>  <ref_pdb>  (220) 
cx0300a

>  <alias>  (220) 
cx1091a-cx0522a

>  <submitter_name>  (220) 
None

>  <HIPPO ID>  (220) 
2376

>  <original ID>  (220) 
cx1091a-cx0522a

>  <method>  (220) 
None

>  <ref_url>  (220) 
None

>  <submitter_email>  (220) 
None

>  <original SMILES>  (220) 
CCN1c2cc(=O)n(CCO)cc2N(C)C(=O)c2cccnc21

$$$$
cx1091a-cx0540a
     RDKit          3D

 24 25  0  0  0  0  0  0  0  0999 V2000
   18.1368    3.9369   11.4619 O   0  0  0  0  0  0  0  0  0  0  0  0
   15.3290    3.8845   10.9504 C   0  0  0  0  0  0  0  0  0  0  0  0
   14.4782    5.1416   10.8158 C   0  0  0  0  0  0  0  0  0  0  0  0
   13.9189    5.2316    9.5121 O   0  0  0  0  0  0  0  0  0  0  0  0
   17.6280    2.4042   16.0605 C   0  0  0  0  0  0  0  0  0  0  0  0
   17.3048    3.5200   17.0664 C   0  0  0  0  0  0  0  0  0  0  0  0
   19.1596    2.2191   16.0572 C   0  0  0  0  0  0  0  0  0  0  0  0
   15.6835    1.1031   16.7558 O   0  0  0  0  0  0  0  0  0  0  0  0
   16.9073    1.1141   16.5826 C   0  0  0  0  0  0  0  0  0  0  0  0
   17.7511   -0.0991   16.9908 C   0  0  0  0  0  0  0  0  0  0  0  0
   20.2398   -4.5150   17.9505 F   0  0  0  0  0  0  0  0  0  0  0  0
   16.8868   -1.1420   17.4395 O   0  0  0  0  0  0  0  0  0  0  0  0
   15.9663    3.7321   12.2610 N   0  0  0  0  0  0  0  0  0  0  0  0
   15.1745    3.5211   13.3663 C   0  0  0  0  0  0  0  0  0  0  0  0
   15.6823    3.1207   14.5334 C   0  0  0  0  0  0  0  0  0  0  0  0
   17.1028    2.8665   14.6911 C   0  0  0  0  0  0  0  0  0  0  0  0
   17.8880    3.1372   13.6330 C   0  0  0  0  0  0  0  0  0  0  0  0
   17.3455    3.6502   12.3502 C   0  0  0  0  0  0  0  0  0  0  0  0
   17.5083   -2.1489   18.1192 C   0  0  0  0  0  0  0  0  0  0  0  0
   18.6802   -2.7659   17.6934 C   0  0  0  0  0  0  0  0  0  0  0  0
   19.1669   -3.8580   18.4088 C   0  0  0  0  0  0  0  0  0  0  0  0
   18.5266   -4.3231   19.5509 C   0  0  0  0  0  0  0  0  0  0  0  0
   17.3627   -3.6948   19.9798 C   0  0  0  0  0  0  0  0  0  0  0  0
   16.8465   -2.6197   19.2543 C   0  0  0  0  0  0  0  0  0  0  0  0
  3  2  1  0
  4  3  1  0
  6  5  1  0
  7  5  1  0
  9  8  2  0
 10  9  1  0
 12 10  1  0
  9  5  1  0
 13 18  1  0
 13  2  1  0
 13 14  1  0
 14 15  2  0
 15 16  1  0
 16 17  2  0
 16  5  1  0
 17 18  1  0
 18  1  2  0
 19 24  1  0
 19 20  2  0
 19 12  1  0
 20 21  1  0
 21 22  2  0
 21 11  1  0
 22 23  1  0
 23 24  2  0
M  END
>  <generation_date>  (221) 
None

>  <inchikey>  (221) 
CNCNOCGXDJIOKP-UHFFFAOYSA-N

>  <ref_mols>  (221) 
cx0540a,cx1091a

>  <tags>  (221) 
['select (DF) [batch3_oxyanion]', 'pure_merges', 'fragmenstein', 'butcher: oxyanion', 'select (JA) [batch3_oxyanion]', 'raw']

>  <ref_pdb>  (221) 
cx0300a

>  <alias>  (221) 
cx1091a-cx0540a

>  <submitter_name>  (221) 
None

>  <HIPPO ID>  (221) 
2392

>  <original ID>  (221) 
cx1091a-cx0540a

>  <method>  (221) 
None

>  <ref_url>  (221) 
None

>  <submitter_email>  (221) 
None

>  <original SMILES>  (221) 
CC(C)(C(=O)COc1cccc(F)c1)c1ccn(CCO)c(=O)c1

$$$$
cx1091a-cx0300a
     RDKit          3D

 19 20  0  0  0  0  0  0  0  0999 V2000
   18.1075    3.7664   11.4372 O   0  0  0  0  0  0  0  0  0  0  0  0
   15.3062    3.6599   10.7924 C   0  0  0  0  0  0  0  0  0  0  0  0
   14.4840    4.9161   10.4814 C   0  0  0  0  0  0  0  0  0  0  0  0
   13.9475    4.8604    9.1767 O   0  0  0  0  0  0  0  0  0  0  0  0
   17.3948    3.5864   16.4800 Br  0  0  0  0  0  0  0  0  0  0  0  0
   14.7090    5.2532   15.0208 N   0  0  0  0  0  0  0  0  0  0  0  0
   15.1501    6.2068   15.9071 C   0  0  0  0  0  0  0  0  0  0  0  0
   15.4921    5.9764   17.0578 O   0  0  0  0  0  0  0  0  0  0  0  0
   15.8890    3.6795   12.1426 N   0  0  0  0  0  0  0  0  0  0  0  0
   15.0324    3.9363   13.1905 C   0  0  0  0  0  0  0  0  0  0  0  0
   15.4937    4.2968   14.3960 C   0  0  0  0  0  0  0  0  0  0  0  0
   16.8666    3.9452   14.7252 C   0  0  0  0  0  0  0  0  0  0  0  0
   17.7264    3.6842   13.7306 C   0  0  0  0  0  0  0  0  0  0  0  0
   17.2674    3.7291   12.3247 C   0  0  0  0  0  0  0  0  0  0  0  0
   15.2593    8.7181   16.1027 C   0  0  0  0  0  0  0  0  0  0  0  0
   15.0684    7.5688   15.3575 C   0  0  0  0  0  0  0  0  0  0  0  0
   14.8181    7.7946   13.9975 N   0  0  0  0  0  0  0  0  0  0  0  0
   14.8864    9.0859   13.7509 C   0  0  0  0  0  0  0  0  0  0  0  0
   15.1580   10.1039   15.1007 S   0  0  0  0  0  0  0  0  0  0  0  0
  3  2  1  0
  4  3  1  0
  7  6  1  0
  8  7  2  0
  9 14  1  0
  9  2  1  0
  9 10  1  0
 10 11  2  0
 11 12  1  0
 12 13  2  0
 12  5  1  0
 13 14  1  0
 14  1  2  0
 15 16  2  0
 15 19  1  0
 16  7  1  0
 16 17  1  0
 17 18  2  0
 18 19  1  0
  6 11  1  0
M  END
>  <generation_date>  (222) 
None

>  <inchikey>  (222) 
MFKGJNVVGNXAPC-UHFFFAOYSA-N

>  <ref_mols>  (222) 
cx0300a,cx1091a

>  <tags>  (222) 
['butcher: adenine', 'select (DF) [batch4_others]', 'pure_merges', 'fragmenstein', 'select (HA) [batch4_others]', 'butcher: oxyanion', 'raw']

>  <ref_pdb>  (222) 
cx0300a

>  <alias>  (222) 
cx1091a-cx0300a

>  <submitter_name>  (222) 
None

>  <HIPPO ID>  (222) 
2401

>  <original ID>  (222) 
cx1091a-cx0300a

>  <method>  (222) 
None

>  <ref_url>  (222) 
None

>  <submitter_email>  (222) 
None

>  <original SMILES>  (222) 
O=C(Nc1cn(CCO)c(=O)cc1Br)c1cscn1

$$$$
cx1091a-cx0316a
     RDKit          3D

 16 17  0  0  0  0  0  0  0  0999 V2000
   18.1301    3.8832   11.5433 O   0  0  0  0  0  0  0  0  0  0  0  0
   15.3428    3.8040   11.0673 C   0  0  0  0  0  0  0  0  0  0  0  0
   17.7963    2.9360   16.5741 Br  0  0  0  0  0  0  0  0  0  0  0  0
   13.8540    9.1627    9.0792 C   0  0  0  0  0  0  0  0  0  0  0  0
   14.6651    8.6087   10.2325 C   0  0  0  0  0  0  0  0  0  0  0  0
   15.9734    3.7377   12.3916 N   0  0  0  0  0  0  0  0  0  0  0  0
   15.1747    3.6389   13.5142 C   0  0  0  0  0  0  0  0  0  0  0  0
   15.6973    3.4253   14.7253 C   0  0  0  0  0  0  0  0  0  0  0  0
   17.1213    3.2928   14.8762 C   0  0  0  0  0  0  0  0  0  0  0  0
   17.9234    3.4352   13.8177 C   0  0  0  0  0  0  0  0  0  0  0  0
   17.3573    3.7181   12.4791 C   0  0  0  0  0  0  0  0  0  0  0  0
   15.3096    6.3248   11.0480 N   0  0  0  0  0  0  0  0  0  0  0  0
   14.4568    7.1723   10.5153 C   0  0  0  0  0  0  0  0  0  0  0  0
   13.3266    6.5767   10.0438 O   0  0  0  0  0  0  0  0  0  0  0  0
   13.4858    5.2117   10.2503 N   0  0  0  0  0  0  0  0  0  0  0  0
   14.6896    5.1164   10.8253 C   0  0  0  0  0  0  0  0  0  0  0  0
  5  4  1  0
  6 11  1  0
  6  2  1  0
  6  7  1  0
  7  8  2  0
  8  9  1  0
  9 10  2  0
  9  3  1  0
 10 11  1  0
 11  1  2  0
 12 13  2  0
 12 16  1  0
 13  5  1  0
 13 14  1  0
 14 15  1  0
 15 16  2  0
 16  2  1  0
M  END
>  <generation_date>  (223) 
None

>  <inchikey>  (223) 
QQERROZMPKKQER-UHFFFAOYSA-N

>  <ref_mols>  (223) 
cx1091a,cx0316a

>  <tags>  (223) 
['butcher: adenine', 'select (DF) [batch4_others]', 'pure_merges', 'fragmenstein', 'butcher: oxyanion', 'raw']

>  <ref_pdb>  (223) 
cx0300a

>  <alias>  (223) 
cx1091a-cx0316a

>  <submitter_name>  (223) 
None

>  <HIPPO ID>  (223) 
2409

>  <original ID>  (223) 
cx1091a-cx0316a

>  <method>  (223) 
None

>  <ref_url>  (223) 
None

>  <submitter_email>  (223) 
None

>  <original SMILES>  (223) 
CCc1nc(Cn2ccc(Br)cc2=O)no1

$$$$
cx0316a-cx1444a
     RDKit          3D

 24 27  0  0  0  0  0  0  0  0999 V2000
   14.7330    9.1848   10.5152 C   0  0  0  0  0  0  0  0  0  0  0  0
   18.1771    4.3304   11.6925 O   0  0  0  0  0  0  0  0  0  0  0  0
   14.3943    7.9022   11.2475 C   0  0  0  0  0  0  0  0  0  0  0  0
   15.5742    3.3782   11.0871 C   0  0  0  0  0  0  0  0  0  0  0  0
   15.5009    5.8087   11.0176 N   0  0  0  0  0  0  0  0  0  0  0  0
   14.5894    6.6383   10.6040 C   0  0  0  0  0  0  0  0  0  0  0  0
   13.5827    6.0812    9.8894 O   0  0  0  0  0  0  0  0  0  0  0  0
   13.8590    4.7117    9.8913 N   0  0  0  0  0  0  0  0  0  0  0  0
   14.9516    4.6280   10.6581 C   0  0  0  0  0  0  0  0  0  0  0  0
   15.4312    3.0621   13.5533 C   0  0  0  0  0  0  0  0  0  0  0  0
   16.1496    3.4953   12.4551 N   0  0  0  0  0  0  0  0  0  0  0  0
   17.4322    4.0055   12.6072 C   0  0  0  0  0  0  0  0  0  0  0  0
   17.9230    4.1593   14.0051 C   0  0  0  0  0  0  0  0  0  0  0  0
   17.1892    3.7325   15.0374 C   0  0  0  0  0  0  0  0  0  0  0  0
   15.9052    3.1418   14.8003 C   0  0  0  0  0  0  0  0  0  0  0  0
   14.5504   11.5717   11.4234 N   0  0  0  0  0  0  0  0  0  0  0  0
   14.8151   10.2874   11.5566 C   0  0  0  0  0  0  0  0  0  0  0  0
   15.0996   10.0134   12.8793 N   0  0  0  0  0  0  0  0  0  0  0  0
   14.9613   11.1319   13.6263 C   0  0  0  0  0  0  0  0  0  0  0  0
   14.6394   12.1022   12.6967 C   0  0  0  0  0  0  0  0  0  0  0  0
   14.4935   13.4064   13.1712 C   0  0  0  0  0  0  0  0  0  0  0  0
   14.6531   13.6760   14.5375 C   0  0  0  0  0  0  0  0  0  0  0  0
   14.9643   12.6572   15.4331 C   0  0  0  0  0  0  0  0  0  0  0  0
   15.1311   11.3475   14.9916 C   0  0  0  0  0  0  0  0  0  0  0  0
  3  1  1  0
  5  6  2  0
  5  9  1  0
  6  3  1  0
  6  7  1  0
  7  8  1  0
  8  9  2  0
  9  4  1  0
 10 15  2  0
 10 11  1  0
 11  4  1  0
 11 12  1  0
 12 13  1  0
 12  2  2  0
 13 14  2  0
 14 15  1  0
 16 17  2  0
 16 20  1  0
 17 18  1  0
 18 19  1  0
 19 24  1  0
 19 20  2  0
 20 21  1  0
 21 22  2  0
 22 23  1  0
 23 24  2  0
  1 17  1  0
M  END
>  <generation_date>  (224) 
None

>  <inchikey>  (224) 
SAGMUADGZHCREV-UHFFFAOYSA-N

>  <ref_mols>  (224) 
cx1444a,cx0316a

>  <tags>  (224) 
['butcher: adenine', 'select (DF) [batch4_others]', 'pure_merges', 'fragmenstein', 'select (HA) [batch4_others]', 'butcher: oxyanion', 'raw']

>  <ref_pdb>  (224) 
cx0300a

>  <alias>  (224) 
cx0316a-cx1444a

>  <submitter_name>  (224) 
None

>  <HIPPO ID>  (224) 
2421

>  <original ID>  (224) 
cx0316a-cx1444a

>  <method>  (224) 
None

>  <ref_url>  (224) 
None

>  <submitter_email>  (224) 
None

>  <original SMILES>  (224) 
O=c1ccccn1Cc1noc(CCc2nc3ccccc3[nH]2)n1

$$$$
cx0316a-cx0632a
     RDKit          3D

 28 31  0  0  0  0  0  0  0  0999 V2000
   13.8723    9.2590    9.0819 C   0  0  0  0  0  0  0  0  0  0  0  0
   18.0118    3.6829   11.5764 O   0  0  0  0  0  0  0  0  0  0  0  0
   14.6697    8.6613   10.2214 C   0  0  0  0  0  0  0  0  0  0  0  0
   15.2225    3.8253   11.0074 C   0  0  0  0  0  0  0  0  0  0  0  0
   15.0575    4.9117   15.7904 C   0  0  0  0  0  0  0  0  0  0  0  0
   16.9758    2.7163   16.2430 C   0  0  0  0  0  0  0  0  0  0  0  0
   15.2597    6.3475   10.9864 N   0  0  0  0  0  0  0  0  0  0  0  0
   14.4386    7.2208   10.4490 C   0  0  0  0  0  0  0  0  0  0  0  0
   13.3250    6.6535    9.9093 O   0  0  0  0  0  0  0  0  0  0  0  0
   13.4604    5.2826   10.0759 N   0  0  0  0  0  0  0  0  0  0  0  0
   14.6354    5.1537   10.6991 C   0  0  0  0  0  0  0  0  0  0  0  0
   15.0603    4.1394   13.4452 C   0  0  0  0  0  0  0  0  0  0  0  0
   15.8143    3.7795   12.3437 N   0  0  0  0  0  0  0  0  0  0  0  0
   17.1844    3.5821   12.4737 C   0  0  0  0  0  0  0  0  0  0  0  0
   17.6201    3.1184   13.8166 C   0  0  0  0  0  0  0  0  0  0  0  0
   16.8091    3.3018   14.8697 C   0  0  0  0  0  0  0  0  0  0  0  0
   15.5981    4.0877   14.6692 C   0  0  0  0  0  0  0  0  0  0  0  0
   17.1204   -2.3099   18.4971 C   0  0  0  0  0  0  0  0  0  0  0  0
   17.2044   -3.4831   19.2517 C   0  0  0  0  0  0  0  0  0  0  0  0
   18.3774   -4.2354   19.2612 C   0  0  0  0  0  0  0  0  0  0  0  0
   19.4773   -3.8169   18.5169 C   0  0  0  0  0  0  0  0  0  0  0  0
   19.4094   -2.6366   17.7752 C   0  0  0  0  0  0  0  0  0  0  0  0
   18.2339   -1.8697   17.7698 C   0  0  0  0  0  0  0  0  0  0  0  0
   17.6837    1.4200   16.3927 C   0  0  0  0  0  0  0  0  0  0  0  0
   19.0359    1.1172   16.1688 C   0  0  0  0  0  0  0  0  0  0  0  0
   19.3674   -0.1053   16.5736 N   0  0  0  0  0  0  0  0  0  0  0  0
   18.2234   -0.6248   17.0846 N   0  0  0  0  0  0  0  0  0  0  0  0
   17.1742    0.2558   16.9370 C   0  0  0  0  0  0  0  0  0  0  0  0
  3  1  1  0
  7  8  2  0
  7 11  1  0
  8  3  1  0
  8  9  1  0
  9 10  1  0
 10 11  2  0
 11  4  1  0
 12 17  2  0
 12 13  1  0
 13  4  1  0
 13 14  1  0
 14 15  1  0
 14  2  2  0
 15 16  2  0
 16 17  1  0
 18 23  2  0
 18 19  1  0
 19 20  2  0
 20 21  1  0
 21 22  2  0
 22 23  1  0
 23 27  1  0
 24  6  1  0
 24 25  1  0
 24 28  2  0
 25 26  2  0
 26 27  1  0
 27 28  1  0
 17  5  1  0
  6 16  1  0
M  END
>  <generation_date>  (225) 
None

>  <inchikey>  (225) 
XZZIEIPBDBERLL-UHFFFAOYSA-N

>  <ref_mols>  (225) 
cx0632a,cx0316a

>  <tags>  (225) 
['butcher: adenine', 'select (DF) [batch4_others]', 'pure_merges', 'fragmenstein', 'select (HA) [batch4_others]', 'butcher: oxyanion', 'raw']

>  <ref_pdb>  (225) 
cx0300a

>  <alias>  (225) 
cx0316a-cx0632a

>  <submitter_name>  (225) 
None

>  <HIPPO ID>  (225) 
2422

>  <original ID>  (225) 
cx0316a-cx0632a

>  <method>  (225) 
None

>  <ref_url>  (225) 
None

>  <submitter_email>  (225) 
None

>  <original SMILES>  (225) 
CCc1nc(Cn2cc(C)c(Cc3cnn(-c4ccccc4)c3)cc2=O)no1

$$$$
cx0316a-cx0305a
     RDKit          3D

 25 27  0  0  0  0  0  0  0  0999 V2000
   13.8348    8.9183    9.0916 C   0  0  0  0  0  0  0  0  0  0  0  0
   17.8600    4.7523   11.8882 O   0  0  0  0  0  0  0  0  0  0  0  0
   14.6635    8.4207   10.2618 C   0  0  0  0  0  0  0  0  0  0  0  0
   15.3067    3.6867   11.6059 C   0  0  0  0  0  0  0  0  0  0  0  0
   16.8762    0.7402   16.4038 N   0  0  0  0  0  0  0  0  0  0  0  0
   15.0862    2.1209   16.9032 O   0  0  0  0  0  0  0  0  0  0  0  0
   16.0339    1.8139   16.1941 C   0  0  0  0  0  0  0  0  0  0  0  0
   18.8493   -1.4737   16.5428 C   0  0  0  0  0  0  0  0  0  0  0  0
   15.3027    6.2172   11.2999 N   0  0  0  0  0  0  0  0  0  0  0  0
   14.4592    7.0067   10.6666 C   0  0  0  0  0  0  0  0  0  0  0  0
   13.3294    6.3671   10.2582 O   0  0  0  0  0  0  0  0  0  0  0  0
   13.4711    5.0360   10.6399 N   0  0  0  0  0  0  0  0  0  0  0  0
   14.6654    4.9953   11.2490 C   0  0  0  0  0  0  0  0  0  0  0  0
   15.6520    2.8761   13.9620 C   0  0  0  0  0  0  0  0  0  0  0  0
   16.0592    3.6706   12.8792 N   0  0  0  0  0  0  0  0  0  0  0  0
   17.3218    4.2502   12.8654 C   0  0  0  0  0  0  0  0  0  0  0  0
   18.0703    4.2269   14.1456 C   0  0  0  0  0  0  0  0  0  0  0  0
   17.6558    3.4619   15.1590 C   0  0  0  0  0  0  0  0  0  0  0  0
   16.4347    2.7003   15.0469 C   0  0  0  0  0  0  0  0  0  0  0  0
   16.7406   -0.2715   17.3980 C   0  0  0  0  0  0  0  0  0  0  0  0
   17.6850   -1.3144   17.4791 C   0  0  0  0  0  0  0  0  0  0  0  0
   17.5236   -2.3065   18.4617 C   0  0  0  0  0  0  0  0  0  0  0  0
   16.4649   -2.2227   19.3443 C   0  0  0  0  0  0  0  0  0  0  0  0
   15.5476   -1.2432   19.3045 N   0  0  0  0  0  0  0  0  0  0  0  0
   15.7018   -0.3021   18.3348 C   0  0  0  0  0  0  0  0  0  0  0  0
  3  1  1  0
  7  6  2  0
  7  5  1  0
  9 10  2  0
  9 13  1  0
 10  3  1  0
 10 11  1  0
 11 12  1  0
 12 13  2  0
 13  4  1  0
 14 19  2  0
 14 15  1  0
 15  4  1  0
 15 16  1  0
 16 17  1  0
 16  2  2  0
 17 18  2  0
 18 19  1  0
 20  5  1  0
 20 25  1  0
 20 21  2  0
 21 22  1  0
 21  8  1  0
 22 23  2  0
 23 24  1  0
 24 25  2  0
 19  7  1  0
M  END
>  <generation_date>  (226) 
None

>  <inchikey>  (226) 
HWALCSZPJSQWRX-UHFFFAOYSA-N

>  <ref_mols>  (226) 
cx0305a,cx0316a

>  <tags>  (226) 
['butcher: adenine', 'select (DF) [batch4_others]', 'pure_merges', 'fragmenstein', 'butcher: oxyanion', 'raw']

>  <ref_pdb>  (226) 
cx0300a

>  <alias>  (226) 
cx0316a-cx0305a

>  <submitter_name>  (226) 
None

>  <HIPPO ID>  (226) 
2428

>  <original ID>  (226) 
cx0316a-cx0305a

>  <method>  (226) 
None

>  <ref_url>  (226) 
None

>  <submitter_email>  (226) 
None

>  <original SMILES>  (226) 
CCc1nc(Cn2cc(C(=O)Nc3cnccc3C)ccc2=O)no1

$$$$
cx0316a-cx1134a
     RDKit          3D

 21 22  0  0  0  0  0  0  0  0999 V2000
   13.5776    8.6622    9.2623 C   0  0  0  0  0  0  0  0  0  0  0  0
   18.2975    4.7832   12.2611 O   0  0  0  0  0  0  0  0  0  0  0  0
   13.4760    7.6025   10.3583 C   0  0  0  0  0  0  0  0  0  0  0  0
   15.9534    3.5663   11.4031 C   0  0  0  0  0  0  0  0  0  0  0  0
   14.1994   11.9136   10.4920 N   0  0  0  0  0  0  0  0  0  0  0  0
   15.9722    9.1018    9.3605 C   0  0  0  0  0  0  0  0  0  0  0  0
   14.0417   12.6151   11.6991 O   0  0  0  0  0  0  0  0  0  0  0  0
   14.6383    9.7435    9.4632 C   0  0  2  0  0  0  0  0  0  0  0  0
   14.5542   10.6786   10.6934 C   0  0  0  0  0  0  0  0  0  0  0  0
   14.7994   10.2121   11.9580 N   0  0  0  0  0  0  0  0  0  0  0  0
   15.1092    5.9094   11.1444 N   0  0  0  0  0  0  0  0  0  0  0  0
   14.2064    6.3602   10.3109 C   0  0  0  0  0  0  0  0  0  0  0  0
   13.7324    5.4491    9.4282 O   0  0  0  0  0  0  0  0  0  0  0  0
   14.4046    4.2820    9.7014 N   0  0  0  0  0  0  0  0  0  0  0  0
   15.1407    4.6000   10.7735 C   0  0  0  0  0  0  0  0  0  0  0  0
   15.5128    3.1865   13.7912 C   0  0  0  0  0  0  0  0  0  0  0  0
   16.2923    3.7624   12.8058 N   0  0  0  0  0  0  0  0  0  0  0  0
   17.5163    4.3419   13.0948 C   0  0  0  0  0  0  0  0  0  0  0  0
   17.9018    4.3940   14.5288 C   0  0  0  0  0  0  0  0  0  0  0  0
   17.1153    3.8379   15.4567 C   0  0  0  0  0  0  0  0  0  0  0  0
   15.8860    3.2004   15.0747 C   0  0  0  0  0  0  0  0  0  0  0  0
  3  1  1  0
  7  5  1  0
  8  6  1  1
  9  8  1  0
  9  5  2  3
 10  9  1  0
  8  1  1  0
 11 12  2  0
 11 15  1  0
 12  3  1  0
 12 13  1  0
 13 14  1  0
 14 15  2  0
 15  4  1  0
 16 21  2  0
 16 17  1  0
 17  4  1  0
 17 18  1  0
 18 19  1  0
 18  2  2  0
 19 20  2  0
 20 21  1  0
M  END
>  <generation_date>  (227) 
None

>  <inchikey>  (227) 
DFECMQYPBMNLBU-VIFPVBQESA-N

>  <ref_mols>  (227) 
cx1134a,cx0316a

>  <tags>  (227) 
['butcher: adenine', 'select (DF) [batch4_others]', 'pure_merges', 'fragmenstein', 'butcher: oxyanion', 'raw']

>  <ref_pdb>  (227) 
cx0300a

>  <alias>  (227) 
cx0316a-cx1134a

>  <submitter_name>  (227) 
None

>  <HIPPO ID>  (227) 
2430

>  <original ID>  (227) 
cx0316a-cx1134a

>  <method>  (227) 
None

>  <ref_url>  (227) 
None

>  <submitter_email>  (227) 
None

>  <original SMILES>  (227) 
C[C@@H](CCc1nc(Cn2ccccc2=O)no1)C(N)=NO

$$$$
cx0316a-cx1440a
     RDKit          3D

 26 29  0  0  0  0  0  0  0  0999 V2000
   13.6685    8.5389    8.9634 C   0  0  0  0  0  0  0  0  0  0  0  0
   18.3611    4.7029   12.2827 O   0  0  0  0  0  0  0  0  0  0  0  0
   14.1902    8.1551   10.3557 C   0  0  1  0  0  0  0  0  0  0  0  0
   15.9385    3.6488   11.4195 C   0  0  0  0  0  0  0  0  0  0  0  0
   15.5583    6.1268   11.1202 N   0  0  0  0  0  0  0  0  0  0  0  0
   14.6119    6.7518   10.4622 C   0  0  0  0  0  0  0  0  0  0  0  0
   13.7110    5.8989    9.8767 O   0  0  0  0  0  0  0  0  0  0  0  0
   14.1141    4.6254   10.1698 N   0  0  0  0  0  0  0  0  0  0  0  0
   15.1846    4.8130   10.9430 C   0  0  0  0  0  0  0  0  0  0  0  0
   15.5331    3.1646   13.7968 C   0  0  0  0  0  0  0  0  0  0  0  0
   16.3292    3.7314   12.8206 N   0  0  0  0  0  0  0  0  0  0  0  0
   17.5740    4.2647   13.1124 C   0  0  0  0  0  0  0  0  0  0  0  0
   17.9659    4.2752   14.5455 C   0  0  0  0  0  0  0  0  0  0  0  0
   17.1655    3.7263   15.4659 C   0  0  0  0  0  0  0  0  0  0  0  0
   15.9140    3.1373   15.0778 C   0  0  0  0  0  0  0  0  0  0  0  0
   14.4188   13.0253   12.9160 N   0  0  0  0  0  0  0  0  0  0  0  0
   14.7195   11.7669   12.3843 C   0  0  0  0  0  0  0  0  0  0  0  0
   14.8003   11.7513   11.0536 N   0  0  0  0  0  0  0  0  0  0  0  0
   14.8758   10.5524   10.4597 C   0  0  0  0  0  0  0  0  0  0  0  0
   14.7944    9.3229   11.1273 C   0  0  0  0  0  0  0  0  0  0  0  0
   14.8729    9.3635   12.5578 C   0  0  0  0  0  0  0  0  0  0  0  0
   14.8574   10.6309   13.1889 C   0  0  0  0  0  0  0  0  0  0  0  0
   14.8970    8.2329   13.4142 C   0  0  0  0  0  0  0  0  0  0  0  0
   14.9675    8.3464   14.8039 C   0  0  0  0  0  0  0  0  0  0  0  0
   14.9869    9.5970   15.3951 C   0  0  0  0  0  0  0  0  0  0  0  0
   14.9189   10.7296   14.5942 C   0  0  0  0  0  0  0  0  0  0  0  0
  3  1  1  6
  5  6  2  0
  5  9  1  0
  6  3  1  0
  6  7  1  0
  7  8  1  0
  8  9  2  0
  9  4  1  0
 10 15  2  0
 10 11  1  0
 11  4  1  0
 11 12  1  0
 12 13  1  0
 12  2  2  0
 13 14  2  0
 14 15  1  0
 17 16  1  0
 17 22  2  0
 17 18  1  0
 18 19  2  0
 19 20  1  0
 20 21  2  0
 21 23  1  0
 21 22  1  0
 22 26  1  0
 23 24  2  0
 24 25  1  0
 25 26  2  0
  3 20  1  0
M  END
>  <generation_date>  (228) 
None

>  <inchikey>  (228) 
RSHLBVXOFLDHTO-GFCCVEGCSA-N

>  <ref_mols>  (228) 
cx1440a,cx0316a

>  <tags>  (228) 
['butcher: adenine', 'select (DF) [batch4_others]', 'pure_merges', 'fragmenstein', 'butcher: oxyanion', 'raw']

>  <ref_pdb>  (228) 
cx0300a

>  <alias>  (228) 
cx0316a-cx1440a

>  <submitter_name>  (228) 
None

>  <HIPPO ID>  (228) 
2431

>  <original ID>  (228) 
cx0316a-cx1440a

>  <method>  (228) 
None

>  <ref_url>  (228) 
None

>  <submitter_email>  (228) 
None

>  <original SMILES>  (228) 
C[C@@H](c1nc(Cn2ccccc2=O)no1)c1cnc(N)c2ccccc12

$$$$
cx0316a-cx0585a
     RDKit          3D

 28 31  0  0  0  0  0  0  0  0999 V2000
   13.8186    9.1895    9.0668 C   0  0  0  0  0  0  0  0  0  0  0  0
   18.1447    4.5864   12.0795 O   0  0  0  0  0  0  0  0  0  0  0  0
   14.6472    8.6555   10.2137 C   0  0  0  0  0  0  0  0  0  0  0  0
   15.5800    3.9300   11.1500 C   0  0  0  0  0  0  0  0  0  0  0  0
   14.9049    1.7319   17.4564 O   0  0  0  0  0  0  0  0  0  0  0  0
   16.0527    1.2942   17.4916 C   0  0  0  0  0  0  0  0  0  0  0  0
   15.3405   -0.9188   21.6362 F   0  0  0  0  0  0  0  0  0  0  0  0
   15.3452    6.4271   11.1019 N   0  0  0  0  0  0  0  0  0  0  0  0
   14.4886    7.2135   10.4924 C   0  0  0  0  0  0  0  0  0  0  0  0
   13.4523    6.5410    9.9158 O   0  0  0  0  0  0  0  0  0  0  0  0
   13.6991    5.1851   10.1241 N   0  0  0  0  0  0  0  0  0  0  0  0
   14.8438    5.1783   10.8153 C   0  0  0  0  0  0  0  0  0  0  0  0
   14.9909    3.5079   13.4887 C   0  0  0  0  0  0  0  0  0  0  0  0
   15.9907    3.9595   12.5545 N   0  0  0  0  0  0  0  0  0  0  0  0
   17.2736    4.3281   12.9059 C   0  0  0  0  0  0  0  0  0  0  0  0
   17.5898    4.4482   14.3973 C   0  0  0  0  0  0  0  0  0  0  0  0
   16.8256    3.4038   15.2032 C   0  0  2  0  0  0  0  0  0  0  0  0
   15.3504    3.6825   14.9327 C   0  0  0  0  0  0  0  0  0  0  0  0
   15.8440   -0.9843   20.3987 C   0  0  0  0  0  0  0  0  0  0  0  0
   15.7280    0.1171   19.5752 C   0  0  0  0  0  0  0  0  0  0  0  0
   16.2334    0.0590   18.2738 C   0  0  0  0  0  0  0  0  0  0  0  0
   16.7912   -1.1261   17.7907 C   0  0  0  0  0  0  0  0  0  0  0  0
   16.9237   -2.2248   18.6433 C   0  0  0  0  0  0  0  0  0  0  0  0
   16.4620   -2.1473   19.9555 C   0  0  0  0  0  0  0  0  0  0  0  0
   17.0296    3.4171   16.7305 C   0  0  0  0  0  0  0  0  0  0  0  0
   17.3189    1.9929   14.7976 C   0  0  0  0  0  0  0  0  0  0  0  0
   18.0158    1.4525   16.0365 C   0  0  0  0  0  0  0  0  0  0  0  0
   17.1968    2.0065   17.0885 N   0  0  0  0  0  0  0  0  0  0  0  0
  3  1  1  0
  6  5  2  0
  8  9  2  0
  8 12  1  0
  9  3  1  0
  9 10  1  0
 10 11  1  0
 11 12  2  0
 12  4  1  0
 13 18  1  0
 13 14  1  0
 14  4  1  0
 14 15  1  0
 15 16  1  0
 15  2  2  0
 17 16  1  6
 17 18  1  0
 19 24  2  0
 19 20  1  0
 19  7  1  0
 20 21  2  0
 21 22  1  0
 21  6  1  0
 22 23  2  0
 23 24  1  0
 25 28  1  0
 26 27  1  0
 27 28  1  0
 28  6  1  0
 17 25  1  0
 17 26  1  0
M  END
>  <generation_date>  (229) 
None

>  <inchikey>  (229) 
BPLFMCKMVLSVDW-HXUWFJFHSA-N

>  <ref_mols>  (229) 
cx0585a,cx0316a

>  <tags>  (229) 
['butcher: adenine', 'select (DF) [batch4_others]', 'pure_merges', 'fragmenstein', 'butcher: oxyanion', 'raw']

>  <ref_pdb>  (229) 
cx0300a

>  <alias>  (229) 
cx0316a-cx0585a

>  <submitter_name>  (229) 
None

>  <HIPPO ID>  (229) 
2437

>  <original ID>  (229) 
cx0316a-cx0585a

>  <method>  (229) 
None

>  <ref_url>  (229) 
None

>  <submitter_email>  (229) 
None

>  <original SMILES>  (229) 
CCc1nc(CN2CC[C@@]3(CCN(C(=O)c4cccc(F)c4)C3)CC2=O)no1

$$$$
cx0316a-cx1410a
     RDKit          3D

 26 30  0  0  0  0  0  0  0  0999 V2000
   13.2335    8.1695    9.1193 C   0  0  0  0  0  0  0  0  0  0  0  0
   18.4090    4.8132   12.4559 O   0  0  0  0  0  0  0  0  0  0  0  0
   13.7058    7.6756   10.4734 C   0  0  1  0  0  0  0  0  0  0  0  0
   16.0915    3.6185   11.5246 C   0  0  0  0  0  0  0  0  0  0  0  0
   15.1916    5.9819   11.0130 C   0  0  0  0  0  0  0  0  0  0  0  0
   14.0595    6.2998   10.4030 C   0  0  0  0  0  0  0  0  0  0  0  0
   13.3364    5.2696   10.0002 O   0  0  0  0  0  0  0  0  0  0  0  0
   14.0794    4.1504   10.3347 N   0  0  0  0  0  0  0  0  0  0  0  0
   15.1656    4.6055   11.0036 C   0  0  0  0  0  0  0  0  0  0  0  0
   15.5934    3.1659   13.8820 C   0  0  0  0  0  0  0  0  0  0  0  0
   16.4056    3.7598   12.9335 N   0  0  0  0  0  0  0  0  0  0  0  0
   17.6220    4.3319   13.2625 C   0  0  0  0  0  0  0  0  0  0  0  0
   17.9793    4.3334   14.7035 C   0  0  0  0  0  0  0  0  0  0  0  0
   17.1676    3.7564   15.5968 C   0  0  0  0  0  0  0  0  0  0  0  0
   15.9386    3.1435   15.1730 C   0  0  0  0  0  0  0  0  0  0  0  0
   14.9990   14.2821   12.9249 N   0  0  0  0  0  0  0  0  0  0  0  0
   15.8935    7.0536   11.4049 O   0  0  0  0  0  0  0  0  0  0  0  0
   14.4694   12.9985   12.5922 C   0  0  1  0  0  0  0  0  0  0  0  0
   14.9958   12.6139   11.3143 N   0  0  0  0  0  0  0  0  0  0  0  0
   14.5318   11.2472   11.0900 C   0  0  2  0  0  0  0  0  0  0  0  0
   14.5434   10.4917   12.4243 C   0  0  2  0  0  0  0  0  0  0  0  0
   15.0281   11.6887   13.6945 S   0  0  0  0  0  0  0  0  0  0  0  0
   15.0562   10.5396    9.8522 C   0  0  0  0  0  0  0  0  0  0  0  0
   15.6524    9.1461    9.9925 C   0  0  0  0  0  0  0  0  0  0  0  0
   15.0217    8.2654   11.0799 C   0  0  1  0  0  0  0  0  0  0  0  0
   14.8883    9.0023   12.4639 C   0  0  0  0  0  0  0  0  0  0  0  0
  3  1  1  6
  5  6  2  0
  5  9  1  0
  6  3  1  0
  6  7  1  0
  7  8  1  0
  8  9  2  0
  9  4  1  0
 10 15  2  0
 10 11  1  0
 11  4  1  0
 11 12  1  0
 12 13  1  0
 12  2  2  0
 13 14  2  0
 14 15  1  0
 18 16  1  1
 18 19  1  0
 18 22  1  0
 19 20  1  0
 20 23  1  6
 20 21  1  0
 21 26  1  6
 21 22  1  0
 23 24  1  0
 25 24  1  6
 25 26  1  0
 25 17  1  0
  5 17  1  0
 25  3  1  0
M  END
>  <generation_date>  (230) 
None

>  <inchikey>  (230) 
OCIZHOWOTDTEMW-CKQAUIEASA-N

>  <ref_mols>  (230) 
cx1410a,cx0316a

>  <tags>  (230) 
['butcher: adenine', 'pure_merges', 'fragmenstein', 'select (HA) [batch4_others]', 'butcher: oxyanion', 'raw']

>  <ref_pdb>  (230) 
cx0300a

>  <alias>  (230) 
cx0316a-cx1410a

>  <submitter_name>  (230) 
None

>  <HIPPO ID>  (230) 
2439

>  <original ID>  (230) 
cx0316a-cx1410a

>  <method>  (230) 
None

>  <ref_url>  (230) 
None

>  <submitter_email>  (230) 
None

>  <original SMILES>  (230) 
C[C@H]1c2onc(Cn3ccccc3=O)c2O[C@@]12CC[C@@H]1N[C@H](N)S[C@@H]1C2

$$$$
cx0316a-cx1075a
     RDKit          3D

 23 25  0  0  0  0  0  0  0  0999 V2000
   13.6804    8.5405    8.9647 C   0  0  0  0  0  0  0  0  0  0  0  0
   18.3750    4.7183   12.3156 O   0  0  0  0  0  0  0  0  0  0  0  0
   14.1927    8.1630   10.3618 C   0  0  1  0  0  0  0  0  0  0  0  0
   15.9572    3.6642   11.4376 C   0  0  0  0  0  0  0  0  0  0  0  0
   15.5724    6.1451   11.1359 N   0  0  0  0  0  0  0  0  0  0  0  0
   14.6197    6.7630   10.4811 C   0  0  0  0  0  0  0  0  0  0  0  0
   13.7229    5.9053    9.8962 O   0  0  0  0  0  0  0  0  0  0  0  0
   14.1319    4.6348   10.1900 N   0  0  0  0  0  0  0  0  0  0  0  0
   15.2000    4.8287   10.9659 C   0  0  0  0  0  0  0  0  0  0  0  0
   15.5417    3.1667   13.8085 C   0  0  0  0  0  0  0  0  0  0  0  0
   16.3438    3.7363   12.8389 N   0  0  0  0  0  0  0  0  0  0  0  0
   17.5856    4.2709   13.1387 C   0  0  0  0  0  0  0  0  0  0  0  0
   17.9742    4.2677   14.5728 C   0  0  0  0  0  0  0  0  0  0  0  0
   17.1706    3.7120   15.4862 C   0  0  0  0  0  0  0  0  0  0  0  0
   15.9181    3.1303   15.0904 C   0  0  0  0  0  0  0  0  0  0  0  0
   14.5421   13.0245   12.9907 N   0  0  0  0  0  0  0  0  0  0  0  0
   14.8044    7.8911   13.6847 Br  0  0  0  0  0  0  0  0  0  0  0  0
   14.7469   11.7823   12.4079 C   0  0  0  0  0  0  0  0  0  0  0  0
   14.8112   11.7695   11.0792 N   0  0  0  0  0  0  0  0  0  0  0  0
   14.8605   10.5698   10.4721 C   0  0  0  0  0  0  0  0  0  0  0  0
   14.7846    9.3342   11.1278 C   0  0  0  0  0  0  0  0  0  0  0  0
   14.8529    9.4038   12.5320 C   0  0  0  0  0  0  0  0  0  0  0  0
   14.8333   10.6417   13.1749 C   0  0  0  0  0  0  0  0  0  0  0  0
  3  1  1  6
  5  6  2  0
  5  9  1  0
  6  3  1  0
  6  7  1  0
  7  8  1  0
  8  9  2  0
  9  4  1  0
 10 15  2  0
 10 11  1  0
 11  4  1  0
 11 12  1  0
 12 13  1  0
 12  2  2  0
 13 14  2  0
 14 15  1  0
 18 16  1  0
 18 23  2  0
 18 19  1  0
 19 20  2  0
 20 21  1  0
 21 22  2  0
 22 23  1  0
 22 17  1  0
  3 21  1  0
M  END
>  <generation_date>  (231) 
None

>  <inchikey>  (231) 
CLALRKOIFPYRDV-SECBINFHSA-N

>  <ref_mols>  (231) 
cx1075a,cx0316a

>  <tags>  (231) 
['butcher: adenine', 'select (DF) [batch4_others]', 'pure_merges', 'fragmenstein', 'butcher: oxyanion', 'raw']

>  <ref_pdb>  (231) 
cx0300a

>  <alias>  (231) 
cx0316a-cx1075a

>  <submitter_name>  (231) 
None

>  <HIPPO ID>  (231) 
2441

>  <original ID>  (231) 
cx0316a-cx1075a

>  <method>  (231) 
None

>  <ref_url>  (231) 
None

>  <submitter_email>  (231) 
None

>  <original SMILES>  (231) 
C[C@@H](c1nc(Cn2ccccc2=O)no1)c1cnc(N)cc1Br

$$$$
cx0316a-cx0553a
     RDKit          3D

 28 30  0  0  0  0  0  0  0  0999 V2000
   14.5415    8.9581    9.8914 C   0  0  0  0  0  0  0  0  0  0  0  0
   17.3567    5.0286   11.5278 O   0  0  0  0  0  0  0  0  0  0  0  0
   14.3349    7.6719   10.6443 C   0  0  0  0  0  0  0  0  0  0  0  0
   15.1243    3.3721   11.1420 C   0  0  0  0  0  0  0  0  0  0  0  0
   14.7008   11.4600   14.3864 N   0  0  0  0  0  0  0  0  0  0  0  0
   14.7105   12.8513   14.8332 C   0  0  0  0  0  0  0  0  0  0  0  0
   17.4257   10.9067   15.3964 O   0  0  0  0  0  0  0  0  0  0  0  0
   15.0239   10.4660   15.4353 C   0  0  0  0  0  0  0  0  0  0  0  0
   16.5108   10.0954   15.5089 C   0  0  0  0  0  0  0  0  0  0  0  0
   15.1165    8.7445   13.0623 C   0  0  0  0  0  0  0  0  0  0  0  0
   16.7915    8.7785   15.7642 N   0  0  0  0  0  0  0  0  0  0  0  0
   15.3044    7.7271   13.5935 N   0  0  0  0  0  0  0  0  0  0  0  0
   14.6888    5.4371    9.8489 N   0  0  0  0  0  0  0  0  0  0  0  0
   13.8456    6.4074   10.0987 C   0  0  0  0  0  0  0  0  0  0  0  0
   12.6970    5.9528   10.6864 O   0  0  0  0  0  0  0  0  0  0  0  0
   13.0141    4.6898   11.1890 N   0  0  0  0  0  0  0  0  0  0  0  0
   14.2482    4.4816   10.7170 C   0  0  0  0  0  0  0  0  0  0  0  0
   15.3752    2.9384   13.5900 C   0  0  0  0  0  0  0  0  0  0  0  0
   15.7869    3.6095   12.4522 N   0  0  0  0  0  0  0  0  0  0  0  0
   16.9142    4.4133   12.4875 C   0  0  0  0  0  0  0  0  0  0  0  0
   17.6310    4.5205   13.7896 C   0  0  0  0  0  0  0  0  0  0  0  0
   17.1896    3.8569   14.8627 C   0  0  0  0  0  0  0  0  0  0  0  0
   16.0201    3.0346   14.7574 C   0  0  0  0  0  0  0  0  0  0  0  0
   14.7393   11.1800   13.0300 C   0  0  0  0  0  0  0  0  0  0  0  0
   14.9100    9.9760   12.3628 C   0  0  0  0  0  0  0  0  0  0  0  0
   14.7542   10.0907   10.9122 C   0  0  0  0  0  0  0  0  0  0  0  0
   14.6338   11.3386   10.4785 N   0  0  0  0  0  0  0  0  0  0  0  0
   14.4789   12.3513   11.7708 S   0  0  0  0  0  0  0  0  0  0  0  0
  3  1  1  0
  6  5  1  0
  8  5  1  0
  9  8  1  0
  9  7  2  0
 11  9  1  0
 12 10  3  0
 13 14  2  0
 13 17  1  0
 14  3  1  0
 14 15  1  0
 15 16  1  0
 16 17  2  0
 17  4  1  0
 18 23  2  0
 18 19  1  0
 19  4  1  0
 19 20  1  0
 20 21  1  0
 20  2  2  0
 21 22  2  0
 22 23  1  0
 24  5  1  0
 24 25  2  0
 24 28  1  0
 25 26  1  0
 25 10  1  0
 26 27  2  0
 27 28  1  0
  1 26  1  0
M  END
>  <generation_date>  (232) 
None

>  <inchikey>  (232) 
GPZJEEYGFUVZKG-UHFFFAOYSA-N

>  <ref_mols>  (232) 
cx0553a,cx0316a

>  <tags>  (232) 
['butcher: adenine', 'select (DF) [batch4_others]', 'pure_merges', 'fragmenstein', 'select (HA) [batch4_others]', 'butcher: oxyanion', 'raw']

>  <ref_pdb>  (232) 
cx0300a

>  <alias>  (232) 
cx0316a-cx0553a

>  <submitter_name>  (232) 
None

>  <HIPPO ID>  (232) 
2445

>  <original ID>  (232) 
cx0316a-cx0553a

>  <method>  (232) 
None

>  <ref_url>  (232) 
None

>  <submitter_email>  (232) 
None

>  <original SMILES>  (232) 
CN(CC(N)=O)c1snc(CCc2nc(Cn3ccccc3=O)no2)c1C#N

$$$$
cx0316a-cx0300a
     RDKit          3D

 23 25  0  0  0  0  0  0  0  0999 V2000
   13.8020    9.1229    8.9886 C   0  0  0  0  0  0  0  0  0  0  0  0
   18.1793    3.5820   11.5756 O   0  0  0  0  0  0  0  0  0  0  0  0
   14.6596    8.6244   10.1287 C   0  0  0  0  0  0  0  0  0  0  0  0
   15.3754    3.9542   11.5167 C   0  0  0  0  0  0  0  0  0  0  0  0
   14.8979    5.5357   14.0344 N   0  0  0  0  0  0  0  0  0  0  0  0
   14.6015    6.2375   15.1894 C   0  0  0  0  0  0  0  0  0  0  0  0
   14.3689    5.7426   16.2885 O   0  0  0  0  0  0  0  0  0  0  0  0
   15.2977    6.4453   11.1896 N   0  0  0  0  0  0  0  0  0  0  0  0
   14.4785    7.2055   10.4951 C   0  0  0  0  0  0  0  0  0  0  0  0
   13.4426    6.5179    9.9392 O   0  0  0  0  0  0  0  0  0  0  0  0
   13.6355    5.1826   10.2727 N   0  0  0  0  0  0  0  0  0  0  0  0
   14.7557    5.1964   11.0032 C   0  0  0  0  0  0  0  0  0  0  0  0
   15.6953    4.4143   13.9520 C   0  0  0  0  0  0  0  0  0  0  0  0
   16.2368    4.1232   12.7039 N   0  0  0  0  0  0  0  0  0  0  0  0
   17.5077    3.5741   12.6004 C   0  0  0  0  0  0  0  0  0  0  0  0
   18.0285    2.8876   13.8079 C   0  0  0  0  0  0  0  0  0  0  0  0
   17.3252    2.9241   14.9423 C   0  0  0  0  0  0  0  0  0  0  0  0
   16.1823    3.7910   15.0408 C   0  0  0  0  0  0  0  0  0  0  0  0
   14.6478    8.6100   16.0287 C   0  0  0  0  0  0  0  0  0  0  0  0
   14.6775    7.6933   14.9922 C   0  0  0  0  0  0  0  0  0  0  0  0
   14.8830    8.2605   13.7306 N   0  0  0  0  0  0  0  0  0  0  0  0
   15.0190    9.5631   13.8502 C   0  0  0  0  0  0  0  0  0  0  0  0
   14.9538   10.1881   15.4372 S   0  0  0  0  0  0  0  0  0  0  0  0
  3  1  1  0
  6  5  1  0
  7  6  2  0
  8  9  2  0
  8 12  1  0
  9  3  1  0
  9 10  1  0
 10 11  1  0
 11 12  2  0
 12  4  1  0
 13 18  2  0
 13 14  1  0
 14  4  1  0
 14 15  1  0
 15 16  1  0
 15  2  2  0
 16 17  2  0
 17 18  1  0
 19 20  2  0
 19 23  1  0
 20  6  1  0
 20 21  1  0
 21 22  2  0
 22 23  1  0
  5 13  1  0
M  END
>  <generation_date>  (233) 
None

>  <inchikey>  (233) 
NKYLISFCLISZIT-UHFFFAOYSA-N

>  <ref_mols>  (233) 
cx0300a,cx0316a

>  <tags>  (233) 
['butcher: adenine', 'select (DF) [batch4_others]', 'pure_merges', 'fragmenstein', 'butcher: oxyanion', 'raw']

>  <ref_pdb>  (233) 
cx0300a

>  <alias>  (233) 
cx0316a-cx0300a

>  <submitter_name>  (233) 
None

>  <HIPPO ID>  (233) 
2446

>  <original ID>  (233) 
cx0316a-cx0300a

>  <method>  (233) 
None

>  <ref_url>  (233) 
None

>  <submitter_email>  (233) 
None

>  <original SMILES>  (233) 
CCc1nc(Cn2c(NC(=O)c3cscn3)cccc2=O)no1

$$$$
cx0316a-cx1454a
     RDKit          3D

 22 24  0  0  0  0  0  0  0  0999 V2000
   15.3329    9.2412    9.1728 C   0  0  0  0  0  0  0  0  0  0  0  0
   18.2160    4.0906   11.8466 O   0  0  0  0  0  0  0  0  0  0  0  0
   14.5272    8.9487   10.4033 C   0  0  1  0  0  0  0  0  0  0  0  0
   15.4721    4.0857   11.2542 C   0  0  0  0  0  0  0  0  0  0  0  0
   14.5585   13.2910   14.0116 N   0  0  0  0  0  0  0  0  0  0  0  0
   15.4228    6.6537   11.2187 N   0  0  0  0  0  0  0  0  0  0  0  0
   14.5121    7.4814   10.7375 C   0  0  0  0  0  0  0  0  0  0  0  0
   13.4025    6.8211   10.2742 O   0  0  0  0  0  0  0  0  0  0  0  0
   13.6098    5.4718   10.4720 N   0  0  0  0  0  0  0  0  0  0  0  0
   14.8213    5.4113   11.0327 C   0  0  0  0  0  0  0  0  0  0  0  0
   15.1725    3.7377   13.6688 C   0  0  0  0  0  0  0  0  0  0  0  0
   16.0262    3.9356   12.5986 N   0  0  0  0  0  0  0  0  0  0  0  0
   17.4059    3.8740   12.7405 C   0  0  0  0  0  0  0  0  0  0  0  0
   17.9076    3.4939   14.0877 C   0  0  0  0  0  0  0  0  0  0  0  0
   17.0534    3.2801   15.0936 C   0  0  0  0  0  0  0  0  0  0  0  0
   15.6406    3.4275   14.8823 C   0  0  0  0  0  0  0  0  0  0  0  0
   14.4980   12.4316   11.8874 N   0  0  0  0  0  0  0  0  0  0  0  0
   14.6462   12.1815   13.1858 C   0  0  0  0  0  0  0  0  0  0  0  0
   14.8526   10.9060   13.6983 C   0  0  0  0  0  0  0  0  0  0  0  0
   14.8974    9.8118   12.8283 C   0  0  0  0  0  0  0  0  0  0  0  0
   14.7380   10.0253   11.4614 C   0  0  0  0  0  0  0  0  0  0  0  0
   14.5509   11.3666   11.0669 C   0  0  0  0  0  0  0  0  0  0  0  0
  3  1  1  6
  6  7  2  0
  6 10  1  0
  7  3  1  0
  7  8  1  0
  8  9  1  0
  9 10  2  0
 10  4  1  0
 11 16  2  0
 11 12  1  0
 12  4  1  0
 12 13  1  0
 13 14  1  0
 13  2  2  0
 14 15  2  0
 15 16  1  0
 17 22  2  0
 17 18  1  0
 18 19  2  0
 18  5  1  0
 19 20  1  0
 20 21  2  0
 21 22  1  0
  3 21  1  0
M  END
>  <generation_date>  (234) 
None

>  <inchikey>  (234) 
DEYCAJGWGSVJCX-SNVBAGLBSA-N

>  <ref_mols>  (234) 
cx1454a,cx0316a

>  <tags>  (234) 
['butcher: adenine', 'select (DF) [batch4_others]', 'pure_merges', 'fragmenstein', 'butcher: oxyanion', 'raw']

>  <ref_pdb>  (234) 
cx0300a

>  <alias>  (234) 
cx0316a-cx1454a

>  <submitter_name>  (234) 
None

>  <HIPPO ID>  (234) 
2457

>  <original ID>  (234) 
cx0316a-cx1454a

>  <method>  (234) 
None

>  <ref_url>  (234) 
None

>  <submitter_email>  (234) 
None

>  <original SMILES>  (234) 
C[C@H](c1ccc(N)nc1)c1nc(Cn2ccccc2=O)no1

$$$$
cx0316a-cx0505a
     RDKit          3D

 29 32  0  0  0  0  0  0  0  0999 V2000
   13.8112    9.0214    9.0689 C   0  0  0  0  0  0  0  0  0  0  0  0
   18.2401    4.7844   12.4420 O   0  0  0  0  0  0  0  0  0  0  0  0
   14.6748    8.5934   10.2366 C   0  0  0  0  0  0  0  0  0  0  0  0
   15.7748    3.9561   11.3913 C   0  0  0  0  0  0  0  0  0  0  0  0
   15.8488    4.8947   16.3087 C   0  0  0  0  0  0  0  0  0  0  0  0
   19.8640    0.3792   16.2481 O   0  0  0  0  0  0  0  0  0  0  0  0
   19.2563    1.4468   16.3158 C   0  0  0  0  0  0  0  0  0  0  0  0
   19.9921    2.6842   16.7584 C   0  0  0  0  0  0  0  0  0  0  0  0
   14.0152    1.3701   19.0136 F   0  0  0  0  0  0  0  0  0  0  0  0
   15.4897    6.4462   11.2369 N   0  0  0  0  0  0  0  0  0  0  0  0
   14.5665    7.1745   10.6466 C   0  0  0  0  0  0  0  0  0  0  0  0
   13.4704    6.4572   10.2711 O   0  0  0  0  0  0  0  0  0  0  0  0
   13.7374    5.1299   10.6101 N   0  0  0  0  0  0  0  0  0  0  0  0
   14.9613    5.1806   11.1545 C   0  0  0  0  0  0  0  0  0  0  0  0
   15.3337    3.1126   13.6858 C   0  0  0  0  0  0  0  0  0  0  0  0
   16.2259    3.7777   12.7841 N   0  0  0  0  0  0  0  0  0  0  0  0
   17.4948    4.1302   13.1709 C   0  0  0  0  0  0  0  0  0  0  0  0
   18.0490    3.6114   14.5115 C   0  0  0  0  0  0  0  0  0  0  0  0
   17.1493    2.7843   15.4669 C   0  0  1  0  0  0  0  0  0  0  0  0
   16.0922    2.1552   14.5583 C   0  0  0  0  0  0  0  0  0  0  0  0
   17.8814    1.5922   16.1320 N   0  0  0  0  0  0  0  0  0  0  0  0
   17.0541    0.8610   17.0665 C   0  0  0  0  0  0  0  0  0  0  0  0
   15.9405    1.4944   17.6373 C   0  0  0  0  0  0  0  0  0  0  0  0
   15.5753    2.7942   17.3767 O   0  0  0  0  0  0  0  0  0  0  0  0
   16.5421    3.5819   16.6484 C   0  0  2  0  0  0  0  0  0  0  0  0
   17.3253   -0.4724   17.4209 C   0  0  0  0  0  0  0  0  0  0  0  0
   16.4910   -1.1694   18.3030 C   0  0  0  0  0  0  0  0  0  0  0  0
   15.3796   -0.5374   18.8492 C   0  0  0  0  0  0  0  0  0  0  0  0
   15.1136    0.7836   18.5118 C   0  0  0  0  0  0  0  0  0  0  0  0
  3  1  1  0
  7  6  2  0
  8  7  1  0
 10 11  2  0
 10 14  1  0
 11  3  1  0
 11 12  1  0
 12 13  1  0
 13 14  2  0
 14  4  1  0
 15 20  1  0
 15 16  1  0
 16  4  1  0
 16 17  1  0
 17 18  1  0
 17  2  2  0
 19 18  1  6
 19 20  1  0
 21  7  1  0
 21 22  1  0
 22 23  2  0
 22 26  1  0
 23 29  1  0
 23 24  1  0
 24 25  1  0
 25  5  1  6
 26 27  2  0
 27 28  1  0
 28 29  2  0
 29  9  1  0
 19 21  1  0
 19 25  1  0
M  END
>  <generation_date>  (235) 
None

>  <inchikey>  (235) 
MVBRVIJPXKWKTK-MPBGBICISA-N

>  <ref_mols>  (235) 
cx0316a,cx0505a

>  <tags>  (235) 
['butcher: adenine', 'select (DF) [batch4_others]', 'pure_merges', 'fragmenstein', 'butcher: oxyanion', 'raw']

>  <ref_pdb>  (235) 
cx0300a

>  <alias>  (235) 
cx0316a-cx0505a

>  <submitter_name>  (235) 
None

>  <HIPPO ID>  (235) 
2460

>  <original ID>  (235) 
cx0316a-cx0505a

>  <method>  (235) 
None

>  <ref_url>  (235) 
None

>  <submitter_email>  (235) 
None

>  <original SMILES>  (235) 
CCc1nc(CN2CC[C@@]3(CC2=O)[C@@H](C)Oc2c(F)cccc2N3C(C)=O)no1

$$$$
cx0894a-cx1305a
     RDKit          3D

 11 12  0  0  0  0  0  0  0  0999 V2000
   14.8483    9.4247    9.4161 Cl  0  0  0  0  0  0  0  0  0  0  0  0
   14.5087   12.3248   14.8473 O   0  0  0  0  0  0  0  0  0  0  0  0
   14.6264   11.8762   13.5389 N   0  0  0  0  0  0  0  0  0  0  0  0
   14.7757   10.5714   13.1860 C   0  0  0  0  0  0  0  0  0  0  0  0
   14.7703   10.6049   11.7900 C   0  0  0  0  0  0  0  0  0  0  0  0
   14.6300   11.9040   11.3330 N   0  0  0  0  0  0  0  0  0  0  0  0
   14.5257   12.6364   12.4179 C   0  0  0  0  0  0  0  0  0  0  0  0
   14.8334    9.3692   11.1154 C   0  0  0  0  0  0  0  0  0  0  0  0
   14.8695    9.3923   13.9359 C   0  0  0  0  0  0  0  0  0  0  0  0
   14.8916    8.1835   13.2266 C   0  0  0  0  0  0  0  0  0  0  0  0
   14.8522    8.1623   11.8288 C   0  0  0  0  0  0  0  0  0  0  0  0
  3  4  1  0
  3  7  1  0
  4  9  2  0
  4  5  1  0
  5  8  2  0
  5  6  1  0
  6  7  2  0
  8 11  1  0
  8  1  1  0
  9 10  1  0
 10 11  2  0
  2  3  1  0
M  END
>  <generation_date>  (236) 
None

>  <inchikey>  (236) 
AFCUYNSAPSJSMW-UHFFFAOYSA-N

>  <ref_mols>  (236) 
cx1305a,cx0894a

>  <tags>  (236) 
['butcher: adenine', 'pure_merges', 'fragmenstein', 'select (HA) [batch2_adenine2]', 'raw']

>  <ref_pdb>  (236) 
cx0300a

>  <alias>  (236) 
cx0894a-cx1305a

>  <submitter_name>  (236) 
None

>  <HIPPO ID>  (236) 
2469

>  <original ID>  (236) 
cx0894a-cx1305a

>  <method>  (236) 
None

>  <ref_url>  (236) 
None

>  <submitter_email>  (236) 
None

>  <original SMILES>  (236) 
On1cnc2c(Cl)cccc21

$$$$
cx0894a-cx0300a
     RDKit          3D

 24 27  0  0  0  0  0  0  0  0999 V2000
   14.8697    9.9605    9.3330 Cl  0  0  0  0  0  0  0  0  0  0  0  0
   15.4361    5.2623   14.5826 N   0  0  0  0  0  0  0  0  0  0  0  0
   15.0234    6.0720   15.6000 C   0  0  0  0  0  0  0  0  0  0  0  0
   14.7172    5.7058   16.7225 O   0  0  0  0  0  0  0  0  0  0  0  0
   18.5110    3.8648   11.7964 O   0  0  0  0  0  0  0  0  0  0  0  0
   14.6646   12.5031   13.6716 N   0  0  0  0  0  0  0  0  0  0  0  0
   14.7735   11.2148   13.2332 C   0  0  0  0  0  0  0  0  0  0  0  0
   14.7133   11.2413   11.7698 C   0  0  0  0  0  0  0  0  0  0  0  0
   14.5418   12.4654   11.3864 N   0  0  0  0  0  0  0  0  0  0  0  0
   14.5240   13.1754   12.5719 C   0  0  0  0  0  0  0  0  0  0  0  0
   14.8300    9.9746   11.0391 C   0  0  0  0  0  0  0  0  0  0  0  0
   14.9010   10.1001   13.9469 C   0  0  0  0  0  0  0  0  0  0  0  0
   14.9242    8.8074   13.2186 C   0  0  0  0  0  0  0  0  0  0  0  0
   14.8606    8.8337   11.7313 C   0  0  0  0  0  0  0  0  0  0  0  0
   16.8814    3.3453   15.0728 C   0  0  0  0  0  0  0  0  0  0  0  0
   17.9876    3.8166   14.1352 C   0  0  0  0  0  0  0  0  0  0  0  0
   17.6451    3.7813   12.6601 C   0  0  0  0  0  0  0  0  0  0  0  0
   16.3292    3.7688   12.3017 N   0  0  0  0  0  0  0  0  0  0  0  0
   15.2809    3.3292   13.1976 C   0  0  0  0  0  0  0  0  0  0  0  0
   15.5094    3.8268   14.6143 C   0  0  2  0  0  0  0  0  0  0  0  0
   14.9849    8.4577   16.0256 C   0  0  0  0  0  0  0  0  0  0  0  0
   14.9875    7.4902   15.1046 C   0  0  0  0  0  0  0  0  0  0  0  0
   15.0011    7.6273   13.7341 N   0  0  0  0  0  0  0  0  0  0  0  0
   15.0453   10.1348   15.6621 S   0  0  0  0  0  0  0  0  0  0  0  0
  3  2  1  0
  4  3  2  0
  6  7  1  0
  6 10  2  0
  7 12  2  0
  7  8  1  0
  8 11  1  0
  8  9  2  0
  9 10  1  0
 11 14  2  0
 11  1  1  0
 12 13  1  0
 13 14  1  0
 15 20  1  0
 15 16  1  0
 16 17  1  0
 17 18  1  0
 17  5  2  0
 18 19  1  0
 19 20  1  0
 20  2  1  6
 21 22  2  0
 21 24  1  0
 22  3  1  0
 22 23  1  0
 13 23  2  0
 12 24  1  0
M  END
>  <generation_date>  (237) 
None

>  <inchikey>  (237) 
NMGWUATWTFMOJU-SSDOTTSWSA-N

>  <ref_mols>  (237) 
cx0300a,cx0894a

>  <tags>  (237) 
['butcher: adenine', 'pure_merges', 'fragmenstein', 'select (HA) [batch4_others]', 'butcher: oxyanion', 'raw']

>  <ref_pdb>  (237) 
cx0300a

>  <alias>  (237) 
cx0894a-cx0300a

>  <submitter_name>  (237) 
None

>  <HIPPO ID>  (237) 
2481

>  <original ID>  (237) 
cx0894a-cx0300a

>  <method>  (237) 
None

>  <ref_url>  (237) 
None

>  <submitter_email>  (237) 
None

>  <original SMILES>  (237) 
O=C1CC[C@@H](NC(=O)c2csc3c(cc(Cl)c4ncnc43)n2)CN1

$$$$
cx0894a-cx1445a
     RDKit          3D

 11 12  0  0  0  0  0  0  0  0999 V2000
   14.8097    8.8485    9.7817 Cl  0  0  0  0  0  0  0  0  0  0  0  0
   14.6080   11.9392   10.2025 O   0  0  0  0  0  0  0  0  0  0  0  0
   14.6350   11.9258   13.7266 N   0  0  0  0  0  0  0  0  0  0  0  0
   14.7909   10.5950   13.4240 C   0  0  0  0  0  0  0  0  0  0  0  0
   14.7790   10.3756   12.0492 C   0  0  0  0  0  0  0  0  0  0  0  0
   14.6384   11.6286   11.5385 N   0  0  0  0  0  0  0  0  0  0  0  0
   14.5119   12.5168   12.5580 C   0  0  0  0  0  0  0  0  0  0  0  0
   14.8301    9.0975   11.4808 C   0  0  0  0  0  0  0  0  0  0  0  0
   14.9082    9.4981   14.2879 C   0  0  0  0  0  0  0  0  0  0  0  0
   14.9497    8.2072   13.7415 C   0  0  0  0  0  0  0  0  0  0  0  0
   14.8912    8.0073   12.3591 C   0  0  0  0  0  0  0  0  0  0  0  0
  3  4  1  0
  3  7  2  0
  4  9  2  0
  4  5  1  0
  5  8  2  0
  5  6  1  0
  6  7  1  0
  8 11  1  0
  8  1  1  0
  9 10  1  0
 10 11  2  0
  6  2  1  0
M  END
>  <generation_date>  (238) 
None

>  <inchikey>  (238) 
CXRILINLDQBJHL-UHFFFAOYSA-N

>  <ref_mols>  (238) 
cx1445a,cx0894a

>  <tags>  (238) 
['butcher: adenine', 'pure_merges', 'fragmenstein', 'select (HA) [batch2_adenine2]', 'raw']

>  <ref_pdb>  (238) 
cx0300a

>  <alias>  (238) 
cx0894a-cx1445a

>  <submitter_name>  (238) 
None

>  <HIPPO ID>  (238) 
2485

>  <original ID>  (238) 
cx0894a-cx1445a

>  <method>  (238) 
None

>  <ref_url>  (238) 
None

>  <submitter_email>  (238) 
None

>  <original SMILES>  (238) 
On1cnc2cccc(Cl)c21

$$$$
cx0894a-cx0406a
     RDKit          3D

 18 20  0  0  0  0  0  0  0  0999 V2000
   14.8836    9.0861    9.7007 Cl  0  0  0  0  0  0  0  0  0  0  0  0
   11.4627    6.2321   13.4488 O   0  0  0  0  0  0  0  0  0  0  0  0
   12.2095    5.6520   12.3843 C   0  0  0  0  0  0  0  0  0  0  0  0
   14.9886    7.3759   12.2193 N   0  0  0  0  0  0  0  0  0  0  0  0
   14.0163   12.7019   12.7001 N   0  0  0  0  0  0  0  0  0  0  0  0
   14.5697   11.4581   12.8409 C   0  0  0  0  0  0  0  0  0  0  0  0
   14.6543   10.9771   11.5363 C   0  0  0  0  0  0  0  0  0  0  0  0
   14.2588   11.9217   10.6465 N   0  0  0  0  0  0  0  0  0  0  0  0
   13.6415   12.7935   11.3944 C   0  0  0  0  0  0  0  0  0  0  0  0
   14.9018    9.6245   11.3280 C   0  0  0  0  0  0  0  0  0  0  0  0
   14.8695   10.7049   13.9628 C   0  0  0  0  0  0  0  0  0  0  0  0
   15.0550    9.3435   13.7249 C   0  0  0  0  0  0  0  0  0  0  0  0
   14.9509    8.7707   12.4376 C   0  0  0  0  0  0  0  0  0  0  0  0
   15.5223    6.0353   14.1661 C   0  0  0  0  0  0  0  0  0  0  0  0
   14.4016    6.6106   13.3009 C   0  0  2  0  0  0  0  0  0  0  0  0
   13.6634    5.3746   12.7992 C   0  0  1  0  0  0  0  0  0  0  0  0
   13.8031    4.4142   13.9859 C   0  0  0  0  0  0  0  0  0  0  0  0
   14.7739    5.0199   14.9877 C   0  0  0  0  0  0  0  0  0  0  0  0
  3  2  1  0
  5  6  1  0
  5  9  1  0
  6 11  2  0
  6  7  1  0
  7 10  2  0
  7  8  1  0
  8  9  2  0
 10 13  1  0
 10  1  1  0
 11 12  1  0
 12 13  2  0
 14 15  1  0
 14 18  1  0
 15 16  1  0
 15  4  1  6
 16 17  1  0
 16  3  1  1
 17 18  1  0
  4 13  1  0
M  END
>  <generation_date>  (239) 
None

>  <inchikey>  (239) 
WHLDZOYDHAHKLT-DTWKUNHWSA-N

>  <ref_mols>  (239) 
cx0406a,cx0894a

>  <tags>  (239) 
['butcher: adenine', 'pure_merges', 'butcher: phosphate', 'fragmenstein', 'select (HA) [batch4_others]', 'butcher: oxyanion', 'raw']

>  <ref_pdb>  (239) 
cx0300a

>  <alias>  (239) 
cx0894a-cx0406a

>  <submitter_name>  (239) 
None

>  <HIPPO ID>  (239) 
2486

>  <original ID>  (239) 
cx0894a-cx0406a

>  <method>  (239) 
None

>  <ref_url>  (239) 
None

>  <submitter_email>  (239) 
None

>  <original SMILES>  (239) 
OC[C@@H]1CCC[C@H]1Nc1ccc2[nH]cnc2c1Cl

$$$$
cx1268a-cx0477a
     RDKit          3D

 16 17  0  0  0  0  0  0  0  0999 V2000
   16.1539    9.3912    9.1076 N   0  0  0  0  0  0  0  0  0  0  0  0
   15.5026    7.6367   10.8332 O   0  0  0  0  0  0  0  0  0  0  0  0
   13.7741    8.7175    9.3588 O   0  0  0  0  0  0  0  0  0  0  0  0
   14.9800    8.7915   10.1467 S   0  0  0  0  0  6  0  0  0  0  0  0
   13.7206   13.2918   11.5931 N   0  0  0  0  0  0  0  0  0  0  0  0
   14.6143    8.1191   14.0108 C   0  0  0  0  0  0  0  0  0  0  0  0
   15.3689    7.5141   15.1979 C   0  0  0  0  0  0  0  0  0  0  0  0
   16.7569    7.3858   14.8925 O   0  0  0  0  0  0  0  0  0  0  0  0
   14.8011   10.1261   11.2558 C   0  0  0  0  0  0  0  0  0  0  0  0
   14.5651   11.3431   10.7522 N   0  0  0  0  0  0  0  0  0  0  0  0
   14.3380   12.1384   11.8120 C   0  0  0  0  0  0  0  0  0  0  0  0
   14.5656   11.4947   12.9712 C   0  0  0  0  0  0  0  0  0  0  0  0
   14.8327   10.2246   12.6121 N   0  0  0  0  0  0  0  0  0  0  0  0
   14.5460   11.5844   14.3662 C   0  0  0  0  0  0  0  0  0  0  0  0
   14.7469   10.4025   14.8763 N   0  0  0  0  0  0  0  0  0  0  0  0
   14.9949    9.5050   13.7735 N   0  0  0  0  0  0  0  0  0  0  0  0
  4  3  2  0
  4  1  1  0
  4  2  2  0
  7  6  1  0
  8  7  1  0
  9 10  2  0
  9 13  1  0
  9  4  1  0
 10 11  1  0
 11 12  2  0
 12 13  1  0
 14 15  2  0
 15 16  1  0
 16  6  1  0
 12 14  1  0
 13 16  1  0
 11  5  1  0
M  END
>  <generation_date>  (240) 
None

>  <inchikey>  (240) 
QEYCHRIJAKTHEP-UHFFFAOYSA-N

>  <ref_mols>  (240) 
cx0477a,cx1268a

>  <tags>  (240) 
['butcher: adenine', 'pure_merges', 'fragmenstein', 'select (HA) [batch2_adenine2]', 'raw']

>  <ref_pdb>  (240) 
cx0300a

>  <alias>  (240) 
cx1268a-cx0477a

>  <submitter_name>  (240) 
None

>  <HIPPO ID>  (240) 
2498

>  <original ID>  (240) 
cx1268a-cx0477a

>  <method>  (240) 
None

>  <ref_url>  (240) 
None

>  <submitter_email>  (240) 
None

>  <original SMILES>  (240) 
Nc1nc(S(N)(=O)=O)n2c1cnn2CCO

$$$$
cx1268a-cx0316a
     RDKit          3D

 19 21  0  0  0  0  0  0  0  0999 V2000
   14.9045    8.9121   10.0544 C   0  0  0  0  0  0  0  0  0  0  0  0
   18.0283    4.0675   11.7026 O   0  0  0  0  0  0  0  0  0  0  0  0
   15.2517    4.0892   11.2391 C   0  0  0  0  0  0  0  0  0  0  0  0
   14.8258    9.9927   11.0898 C   0  0  0  0  0  0  0  0  0  0  0  0
   14.6699   11.2773   10.8294 N   0  0  0  0  0  0  0  0  0  0  0  0
   14.5554   11.9058   12.0395 C   0  0  0  0  0  0  0  0  0  0  0  0
   14.6956   11.0057   13.0656 C   0  0  0  0  0  0  0  0  0  0  0  0
   14.8796    9.7958   12.4529 N   0  0  0  0  0  0  0  0  0  0  0  0
   15.3711    6.6475   11.1537 N   0  0  0  0  0  0  0  0  0  0  0  0
   14.6142    7.5134   10.5007 C   0  0  0  0  0  0  0  0  0  0  0  0
   13.4960    6.9380    9.9673 O   0  0  0  0  0  0  0  0  0  0  0  0
   13.5568    5.5842   10.2626 N   0  0  0  0  0  0  0  0  0  0  0  0
   14.7003    5.4497   10.9456 C   0  0  0  0  0  0  0  0  0  0  0  0
   15.0702    3.8457   13.6805 C   0  0  0  0  0  0  0  0  0  0  0  0
   15.8719    3.9821   12.5614 N   0  0  0  0  0  0  0  0  0  0  0  0
   17.2570    3.8984   12.6397 C   0  0  0  0  0  0  0  0  0  0  0  0
   17.8185    3.5535   13.9727 C   0  0  0  0  0  0  0  0  0  0  0  0
   17.0116    3.3941   15.0265 C   0  0  0  0  0  0  0  0  0  0  0  0
   15.5934    3.5690   14.8800 C   0  0  0  0  0  0  0  0  0  0  0  0
  4  5  2  0
  4  8  1  0
  4  1  1  0
  5  6  1  0
  6  7  2  0
  7  8  1  0
  9 10  2  0
  9 13  1  0
 10 11  1  0
 11 12  1  0
 12 13  2  0
 13  3  1  0
 14 19  2  0
 14 15  1  0
 15  3  1  0
 15 16  1  0
 16 17  1  0
 16  2  2  0
 17 18  2  0
 18 19  1  0
  1 10  1  0
M  END
>  <generation_date>  (241) 
None

>  <inchikey>  (241) 
ZDMYGDSMHGLFIX-UHFFFAOYSA-N

>  <ref_mols>  (241) 
cx0316a,cx1268a

>  <tags>  (241) 
['butcher: adenine', 'select (DF) [batch4_others]', 'pure_merges', 'fragmenstein', 'butcher: oxyanion', 'raw']

>  <ref_pdb>  (241) 
cx0300a

>  <alias>  (241) 
cx1268a-cx0316a

>  <submitter_name>  (241) 
None

>  <HIPPO ID>  (241) 
2507

>  <original ID>  (241) 
cx1268a-cx0316a

>  <method>  (241) 
None

>  <ref_url>  (241) 
None

>  <submitter_email>  (241) 
None

>  <original SMILES>  (241) 
O=c1ccccn1Cc1noc(Cc2ncc[nH]2)n1

$$$$
cx0505a-cx0760a
     RDKit          3D

 17 18  0  0  0  0  0  0  0  0999 V2000
   15.7795    3.8675   15.8257 C   0  0  0  0  0  0  0  0  0  0  0  0
   20.3056   -0.0415   16.4230 O   0  0  0  0  0  0  0  0  0  0  0  0
   19.5648    0.9372   16.4838 C   0  0  0  0  0  0  0  0  0  0  0  0
   20.1153    2.2680   16.9315 C   0  0  0  0  0  0  0  0  0  0  0  0
   14.4233    0.2758   19.2487 F   0  0  0  0  0  0  0  0  0  0  0  0
   18.2151    2.7004   14.5102 C   0  0  0  0  0  0  0  0  0  0  0  0
   14.6008    2.1627   17.7133 O   0  0  0  0  0  0  0  0  0  0  0  0
   18.1872    0.9003   16.2912 N   0  0  0  0  0  0  0  0  0  0  0  0
   17.4215    0.0595   17.1609 C   0  0  0  0  0  0  0  0  0  0  0  0
   16.2219    0.5350   17.6969 C   0  0  0  0  0  0  0  0  0  0  0  0
   15.7243    1.8647   17.3321 C   0  0  0  0  0  0  0  0  0  0  0  0
   16.6177    2.8023   16.5366 C   0  0  1  0  0  0  0  0  0  0  0  0
   17.4128    1.9322   15.5649 C   0  0  1  0  0  0  0  0  0  0  0  0
   17.8732   -1.2042   17.5605 C   0  0  0  0  0  0  0  0  0  0  0  0
   17.1591   -1.9579   18.4942 C   0  0  0  0  0  0  0  0  0  0  0  0
   15.9972   -1.4447   19.0552 C   0  0  0  0  0  0  0  0  0  0  0  0
   15.5242   -0.2077   18.6514 C   0  0  0  0  0  0  0  0  0  0  0  0
  3  2  2  0
  4  3  1  0
  8 13  1  0
  8  3  1  0
  8  9  1  0
  9 10  2  0
  9 14  1  0
 10 17  1  0
 10 11  1  0
 11 12  1  0
 12  1  1  6
 12 13  1  0
 14 15  2  0
 15 16  1  0
 16 17  2  0
 17  5  1  0
 13  6  1  1
  7 11  2  0
M  END
>  <generation_date>  (242) 
None

>  <inchikey>  (242) 
XLASQQYAGIBQKG-HTQZYQBOSA-N

>  <ref_mols>  (242) 
cx0760a,cx0505a

>  <tags>  (242) 
['pure_merges', 'fragmenstein', 'butcher: oxyanion', 'select (HA) [batch3_oxyanion]', 'raw']

>  <ref_pdb>  (242) 
cx0300a

>  <alias>  (242) 
cx0505a-cx0760a

>  <submitter_name>  (242) 
None

>  <HIPPO ID>  (242) 
2514

>  <original ID>  (242) 
cx0505a-cx0760a

>  <method>  (242) 
None

>  <ref_url>  (242) 
None

>  <submitter_email>  (242) 
None

>  <original SMILES>  (242) 
CC(=O)N1c2cccc(F)c2C(=O)[C@H](C)[C@H]1C

$$$$
cx0505a-cx1118a
     RDKit          3D

 22 24  0  0  0  0  0  0  0  0999 V2000
   15.7079    4.5472   16.5249 C   0  0  0  0  0  0  0  0  0  0  0  0
   19.5044    0.1548   16.4227 O   0  0  0  0  0  0  0  0  0  0  0  0
   18.8238    1.1213   16.0666 C   0  0  0  0  0  0  0  0  0  0  0  0
   19.5479    2.3717   15.6756 C   0  0  0  0  0  0  0  0  0  0  0  0
   14.1138    1.1358   19.5846 F   0  0  0  0  0  0  0  0  0  0  0  0
   17.4343    1.1612   16.0926 N   0  0  0  0  0  0  0  0  0  0  0  0
   16.7981    0.4791   17.2014 C   0  0  0  0  0  0  0  0  0  0  0  0
   15.8191    1.1742   17.9523 C   0  0  0  0  0  0  0  0  0  0  0  0
   15.4882    2.5067   17.7699 O   0  0  0  0  0  0  0  0  0  0  0  0
   16.3421    3.1962   16.8253 C   0  0  1  0  0  0  0  0  0  0  0  0
   16.5369    2.2567   15.6289 C   0  0  1  0  0  0  0  0  0  0  0  0
   17.0833   -0.8537   17.5195 C   0  0  0  0  0  0  0  0  0  0  0  0
   16.3877   -1.4955   18.5475 C   0  0  0  0  0  0  0  0  0  0  0  0
   15.3944   -0.8144   19.2498 C   0  0  0  0  0  0  0  0  0  0  0  0
   15.1078    0.5066   18.9404 C   0  0  0  0  0  0  0  0  0  0  0  0
   18.6220    3.9903   11.6946 O   0  0  0  0  0  0  0  0  0  0  0  0
   17.6657    3.1691   13.5645 N   0  0  0  0  0  0  0  0  0  0  0  0
   16.5404    2.8662   14.2321 C   0  0  0  0  0  0  0  0  0  0  0  0
   15.2768    3.2063   13.7044 C   0  0  0  0  0  0  0  0  0  0  0  0
   15.1520    3.8794   12.4961 C   0  0  0  0  0  0  0  0  0  0  0  0
   16.2991    4.2071   11.8190 C   0  0  0  0  0  0  0  0  0  0  0  0
   17.4864    3.8197   12.3943 C   0  0  0  0  0  0  0  0  0  0  0  0
  3  2  2  0
  4  3  1  0
  6 11  1  0
  6  3  1  0
  6  7  1  0
  7  8  2  0
  7 12  1  0
  8 15  1  0
  8  9  1  0
  9 10  1  0
 10  1  1  6
 10 11  1  0
 12 13  2  0
 13 14  1  0
 14 15  2  0
 15  5  1  0
 17 22  2  0
 17 18  1  0
 18 19  2  0
 19 20  1  0
 20 21  2  0
 21 22  1  0
 22 16  1  0
 11 18  1  6
M  END
>  <generation_date>  (243) 
None

>  <inchikey>  (243) 
KCUYLFKBJCQPIS-PSLIRLAXSA-N

>  <ref_mols>  (243) 
cx1118a,cx0505a

>  <tags>  (243) 
['pure_merges', 'fragmenstein', 'butcher: oxyanion', 'select (HA) [batch3_oxyanion]', 'raw']

>  <ref_pdb>  (243) 
cx0300a

>  <alias>  (243) 
cx0505a-cx1118a

>  <submitter_name>  (243) 
None

>  <HIPPO ID>  (243) 
2517

>  <original ID>  (243) 
cx0505a-cx1118a

>  <method>  (243) 
None

>  <ref_url>  (243) 
None

>  <submitter_email>  (243) 
None

>  <original SMILES>  (243) 
CC(=O)N1c2cccc(F)c2O[C@H](C)[C@H]1c1cccc(O)n1

$$$$
cx1431a-cx0892a
     RDKit          3D

 18 20  0  0  0  0  0  0  0  0999 V2000
   14.8483    9.2528    9.1957 N   0  0  0  0  0  0  0  0  0  0  0  0
   14.8340    7.1768   10.8853 O   0  0  0  0  0  0  0  0  0  0  0  0
   14.7182    7.3063   13.7101 C   0  0  0  0  0  0  0  0  0  0  0  0
   14.7678    9.5040   10.5762 C   0  0  0  0  0  0  0  0  0  0  0  0
   14.7683   10.7929   11.0887 C   0  0  0  0  0  0  0  0  0  0  0  0
   14.7432   11.0028   12.4747 C   0  0  0  0  0  0  0  0  0  0  0  0
   14.8124    9.9023   13.3840 C   0  0  0  0  0  0  0  0  0  0  0  0
   14.8172    8.5683   12.8594 C   0  0  0  0  0  0  0  0  0  0  0  0
   14.8152    8.4197   11.4620 C   0  0  0  0  0  0  0  0  0  0  0  0
   14.8531   10.2259   14.7583 C   0  0  0  0  0  0  0  0  0  0  0  0
   14.8050   11.5514   15.2089 C   0  0  0  0  0  0  0  0  0  0  0  0
   14.6557   12.5947   14.3085 C   0  0  0  0  0  0  0  0  0  0  0  0
   14.6210   12.3166   12.9487 C   0  0  0  0  0  0  0  0  0  0  0  0
   12.8362    5.7237   12.8365 C   0  0  0  0  0  0  0  0  0  0  0  0
   13.3370    6.6871   13.6956 C   0  0  0  0  0  0  0  0  0  0  0  0
   12.1473    7.1744   14.8308 S   0  0  0  0  0  0  0  0  0  0  0  0
   10.9481    6.1982   14.0961 C   0  0  0  0  0  0  0  0  0  0  0  0
   11.4521    5.4615   13.0494 C   0  0  0  0  0  0  0  0  0  0  0  0
  4  1  1  0
  4  9  2  0
  4  5  1  0
  5  6  2  0
  6  7  1  0
  6 13  1  0
  7 10  1  0
  7  8  2  0
  8  9  1  0
 10 11  2  0
 11 12  1  0
 12 13  2  0
 14 15  2  0
 14 18  1  0
 15  3  1  0
 15 16  1  0
 16 17  1  0
 17 18  2  0
  9  2  1  0
  8  3  1  0
M  END
>  <generation_date>  (244) 
None

>  <inchikey>  (244) 
USVHVZRVUCRRKV-UHFFFAOYSA-N

>  <ref_mols>  (244) 
cx0892a,cx1431a

>  <tags>  (244) 
['butcher: adenine', 'select (DF) [batch4_others]', 'pure_merges', 'butcher: phosphate', 'fragmenstein', 'select (HA) [batch4_others]', 'raw']

>  <ref_pdb>  (244) 
cx0300a

>  <alias>  (244) 
cx1431a-cx0892a

>  <submitter_name>  (244) 
None

>  <HIPPO ID>  (244) 
2548

>  <original ID>  (244) 
cx1431a-cx0892a

>  <method>  (244) 
None

>  <ref_url>  (244) 
None

>  <submitter_email>  (244) 
None

>  <original SMILES>  (244) 
Nc1cc2ccccc2c(Cc2cccs2)c1O

$$$$
cx1431a-cx1076a
     RDKit          3D

 12 13  0  0  0  0  0  0  0  0999 V2000
   14.8347    9.2694    9.0927 N   0  0  0  0  0  0  0  0  0  0  0  0
   15.0635    8.9435   15.7988 Br  0  0  0  0  0  0  0  0  0  0  0  0
   14.7461    9.5592   10.4491 C   0  0  0  0  0  0  0  0  0  0  0  0
   14.7246   10.8737   10.9102 C   0  0  0  0  0  0  0  0  0  0  0  0
   14.7148   11.1413   12.2885 C   0  0  0  0  0  0  0  0  0  0  0  0
   14.8448   10.0589   13.1812 C   0  0  0  0  0  0  0  0  0  0  0  0
   14.8978    8.7810   12.7340 N   0  0  0  0  0  0  0  0  0  0  0  0
   14.8305    8.5559   11.4017 C   0  0  0  0  0  0  0  0  0  0  0  0
   14.8926   10.3591   14.5434 C   0  0  0  0  0  0  0  0  0  0  0  0
   14.7926   11.6695   15.0262 C   0  0  0  0  0  0  0  0  0  0  0  0
   14.5969   12.7172   14.1372 C   0  0  0  0  0  0  0  0  0  0  0  0
   14.5560   12.4501   12.7732 C   0  0  0  0  0  0  0  0  0  0  0  0
  3  1  1  0
  3  8  2  0
  3  4  1  0
  4  5  2  0
  5  6  1  0
  5 12  1  0
  6  9  1  0
  6  7  2  0
  7  8  1  0
  9 10  2  0
 10 11  1  0
 11 12  2  0
  2  9  1  0
M  END
>  <generation_date>  (245) 
None

>  <inchikey>  (245) 
MBTYRZDRPHSJJS-UHFFFAOYSA-N

>  <ref_mols>  (245) 
cx1076a,cx1431a

>  <tags>  (245) 
['butcher: adenine', 'pure_merges', 'fragmenstein', 'select (DF) [batch2_adenine2]', 'raw']

>  <ref_pdb>  (245) 
cx0300a

>  <alias>  (245) 
cx1431a-cx1076a

>  <submitter_name>  (245) 
None

>  <HIPPO ID>  (245) 
2553

>  <original ID>  (245) 
cx1431a-cx1076a

>  <method>  (245) 
None

>  <ref_url>  (245) 
None

>  <submitter_email>  (245) 
None

>  <original SMILES>  (245) 
Nc1cnc2c(Br)cccc2c1

$$$$
cx0270a-cx0312a
     RDKit          3D

 19 20  0  0  0  0  0  0  0  0999 V2000
   15.7124   11.2806   12.4900 O   0  0  0  0  0  0  0  0  0  0  0  0
   16.6040   11.3837   11.6525 C   0  0  0  0  0  0  0  0  0  0  0  0
   16.6404   10.5973   10.5175 N   0  0  0  0  0  0  0  0  0  0  0  0
   15.5937    9.6521   10.2228 C   0  0  0  0  0  0  0  0  0  0  0  0
   19.1650   15.4634   13.1141 C   0  0  0  0  0  0  0  0  0  0  0  0
   20.7802   14.6591   14.7192 O   0  0  0  0  0  0  0  0  0  0  0  0
   20.5126   15.4846   13.8495 C   0  0  0  0  0  0  0  0  0  0  0  0
   21.4601   16.4563   13.4779 N   0  0  0  0  0  0  0  0  0  0  0  0
   21.0409   17.8436   13.4092 C   0  0  0  0  0  0  0  0  0  0  0  0
   22.8053   16.2456   14.0105 C   0  0  0  0  0  0  0  0  0  0  0  0
   17.6967   12.3592   11.7901 C   0  0  0  0  0  0  0  0  0  0  0  0
   17.6283   13.5348   12.5299 C   0  0  0  0  0  0  0  0  0  0  0  0
   18.8533   14.1668   12.4946 N   0  0  0  0  0  0  0  0  0  0  0  0
   19.7305   13.4296   11.7260 C   0  0  0  0  0  0  0  0  0  0  0  0
   19.0460   12.2871   11.3018 C   0  0  0  0  0  0  0  0  0  0  0  0
   19.7750   11.3211   10.5802 C   0  0  0  0  0  0  0  0  0  0  0  0
   21.0809   13.6468   11.3995 C   0  0  0  0  0  0  0  0  0  0  0  0
   21.7837   12.6448   10.7380 C   0  0  0  0  0  0  0  0  0  0  0  0
   21.1444   11.4809   10.3550 C   0  0  0  0  0  0  0  0  0  0  0  0
  4  3  1  0
  3  2  1  0
  2  1  2  0
 10  8  1  0
  9  8  1  0
  8  7  1  0
  7  6  2  0
  7  5  1  0
 11  2  1  0
 11 12  2  0
 11 15  1  0
 12 13  1  0
 13  5  1  0
 13 14  1  0
 14 17  1  0
 14 15  2  0
 15 16  1  0
 16 19  2  0
 17 18  2  0
 18 19  1  0
M  END
>  <generation_date>  (246) 
None

>  <inchikey>  (246) 
INJSTVWIPZXNGJ-UHFFFAOYSA-N

>  <ref_mols>  (246) 
cx0312a,cx0270a

>  <tags>  (246) 
['butcher: adenine', 'fragmenstein', 'select (HA) [arg144_pures]', 'select (DF) [arg144_pures]', 'arg144_pures', 'select (JA) [arg144_pures]', 'raw', 'butcher: arginine']

>  <ref_pdb>  (246) 
cx0270a

>  <alias>  (246) 
cx0270a-cx0312a

>  <submitter_name>  (246) 
None

>  <HIPPO ID>  (246) 
2743

>  <original ID>  (246) 
cx0270a-cx0312a

>  <method>  (246) 
None

>  <ref_url>  (246) 
None

>  <submitter_email>  (246) 
None

>  <original SMILES>  (246) 
CNC(=O)c1cn(CC(=O)N(C)C)c2ccccc12

$$$$
cx0270a-cx1260a
     RDKit          3D

 15 16  0  0  0  0  0  0  0  0999 V2000
   15.5634   10.8365   12.3124 O   0  0  0  0  0  0  0  0  0  0  0  0
   16.4722   11.0963   11.5278 C   0  0  0  0  0  0  0  0  0  0  0  0
   16.6495   10.3987   10.3550 N   0  0  0  0  0  0  0  0  0  0  0  0
   15.6743    9.4248    9.9393 C   0  0  0  0  0  0  0  0  0  0  0  0
   18.1922   15.3677   13.3651 C   0  0  0  0  0  0  0  0  0  0  0  0
   22.0165   11.1187   10.0445 N   0  0  0  0  0  0  0  0  0  0  0  0
   17.4074   12.1928   11.7755 C   0  0  0  0  0  0  0  0  0  0  0  0
   17.0699   13.3021   12.5360 C   0  0  0  0  0  0  0  0  0  0  0  0
   18.1620   14.1144   12.6443 N   0  0  0  0  0  0  0  0  0  0  0  0
   19.2392   13.5499   11.9997 C   0  0  0  0  0  0  0  0  0  0  0  0
   18.7920   12.3578   11.4191 C   0  0  0  0  0  0  0  0  0  0  0  0
   19.7430   11.5716   10.7292 C   0  0  0  0  0  0  0  0  0  0  0  0
   20.5714   13.9799   11.8992 C   0  0  0  0  0  0  0  0  0  0  0  0
   21.4890   13.1469   11.2532 C   0  0  0  0  0  0  0  0  0  0  0  0
   21.1014   11.9215   10.7272 C   0  0  0  0  0  0  0  0  0  0  0  0
  4  3  1  0
  3  2  1  0
  2  1  2  0
  7  2  1  0
  7  8  2  0
  7 11  1  0
  8  9  1  0
  9  5  1  0
  9 10  1  0
 10 13  1  0
 10 11  2  0
 11 12  1  0
 12 15  2  0
 13 14  2  0
 14 15  1  0
  6 15  1  0
M  END
>  <generation_date>  (247) 
None

>  <inchikey>  (247) 
GXJARPZGKFADOS-UHFFFAOYSA-N

>  <ref_mols>  (247) 
cx1260a,cx0270a

>  <tags>  (247) 
['butcher: adenine', 'fragmenstein', 'select (HA) [arg144_pures]', 'arg144_pures', 'raw', 'butcher: arginine']

>  <ref_pdb>  (247) 
cx0270a

>  <alias>  (247) 
cx0270a-cx1260a

>  <submitter_name>  (247) 
None

>  <HIPPO ID>  (247) 
2761

>  <original ID>  (247) 
cx0270a-cx1260a

>  <method>  (247) 
None

>  <ref_url>  (247) 
None

>  <submitter_email>  (247) 
None

>  <original SMILES>  (247) 
CNC(=O)c1cn(C)c2ccc(N)cc12

$$$$
cx0270a-cx0894d
     RDKit          3D

 15 16  0  0  0  0  0  0  0  0999 V2000
   15.4036   10.8423   12.1934 O   0  0  0  0  0  0  0  0  0  0  0  0
   16.3485   11.0854   11.4474 C   0  0  0  0  0  0  0  0  0  0  0  0
   16.5683   10.3758   10.2891 N   0  0  0  0  0  0  0  0  0  0  0  0
   15.5998    9.4049    9.8514 C   0  0  0  0  0  0  0  0  0  0  0  0
   18.0770   15.3087   13.3888 C   0  0  0  0  0  0  0  0  0  0  0  0
   23.1081   13.1648   11.9374 Cl  0  0  0  0  0  0  0  0  0  0  0  0
   17.2928   12.1640   11.7360 C   0  0  0  0  0  0  0  0  0  0  0  0
   16.9451   13.2733   12.4927 C   0  0  0  0  0  0  0  0  0  0  0  0
   18.0508   14.0529   12.6708 N   0  0  0  0  0  0  0  0  0  0  0  0
   19.1505   13.4405   12.1159 C   0  0  0  0  0  0  0  0  0  0  0  0
   18.6943   12.3021   11.4393 C   0  0  0  0  0  0  0  0  0  0  0  0
   19.6523   11.5140   10.7595 C   0  0  0  0  0  0  0  0  0  0  0  0
   20.5115   13.7711   12.2050 C   0  0  0  0  0  0  0  0  0  0  0  0
   21.4349   12.9038   11.6241 C   0  0  0  0  0  0  0  0  0  0  0  0
   21.0196   11.8116   10.8726 C   0  0  0  0  0  0  0  0  0  0  0  0
  4  3  1  0
  3  2  1  0
  2  1  2  0
  7  2  1  0
  7  8  2  0
  7 11  1  0
  8  9  1  0
  9  5  1  0
  9 10  1  0
 10 13  1  0
 10 11  2  0
 11 12  1  0
 12 15  2  0
 13 14  2  0
 14 15  1  0
  6 14  1  0
M  END
>  <generation_date>  (248) 
None

>  <inchikey>  (248) 
GNFBAQJUTMHLTB-UHFFFAOYSA-N

>  <ref_mols>  (248) 
cx0894d,cx0270a

>  <tags>  (248) 
['butcher: adenine', 'fragmenstein', 'select (HA) [arg144_pures]', 'select (DF) [arg144_pures]', 'arg144_pures', 'raw', 'butcher: arginine']

>  <ref_pdb>  (248) 
cx0270a

>  <alias>  (248) 
cx0270a-cx0894d

>  <submitter_name>  (248) 
None

>  <HIPPO ID>  (248) 
2763

>  <original ID>  (248) 
cx0270a-cx0894d

>  <method>  (248) 
None

>  <ref_url>  (248) 
None

>  <submitter_email>  (248) 
None

>  <original SMILES>  (248) 
CNC(=O)c1cn(C)c2cc(Cl)ccc12

$$$$
cx0270a-cx0894e
     RDKit          3D

 18 20  0  0  0  0  0  0  0  0999 V2000
   15.4767   10.7844   12.3205 O   0  0  0  0  0  0  0  0  0  0  0  0
   16.3760   11.0670   11.5337 C   0  0  0  0  0  0  0  0  0  0  0  0
   16.5452   10.4028   10.3395 N   0  0  0  0  0  0  0  0  0  0  0  0
   15.5848    9.4183    9.9131 C   0  0  0  0  0  0  0  0  0  0  0  0
   18.1181   15.3015   13.4287 C   0  0  0  0  0  0  0  0  0  0  0  0
   21.2593   15.1633   12.7475 Cl  0  0  0  0  0  0  0  0  0  0  0  0
   17.3244   12.1462   11.8107 C   0  0  0  0  0  0  0  0  0  0  0  0
   17.0126   13.2384   12.6011 C   0  0  0  0  0  0  0  0  0  0  0  0
   18.1164   14.0396   12.7190 N   0  0  0  0  0  0  0  0  0  0  0  0
   19.1907   13.4649   12.0730 C   0  0  0  0  0  0  0  0  0  0  0  0
   18.7039   12.3045   11.4429 C   0  0  0  0  0  0  0  0  0  0  0  0
   19.6088   11.5278   10.6984 C   0  0  0  0  0  0  0  0  0  0  0  0
   20.5432   13.8173   11.9731 C   0  0  0  0  0  0  0  0  0  0  0  0
   21.4355   13.0554   11.2185 C   0  0  0  0  0  0  0  0  0  0  0  0
   20.9391   11.9159   10.6033 C   0  0  0  0  0  0  0  0  0  0  0  0
   22.7741   13.2163   10.9163 N   0  0  0  0  0  0  0  0  0  0  0  0
   23.0805   12.2143   10.1274 C   0  0  0  0  0  0  0  0  0  0  0  0
   22.0104   11.3962    9.9298 N   0  0  0  0  0  0  0  0  0  0  0  0
  4  3  1  0
  3  2  1  0
  2  1  2  0
  7  2  1  0
  7  8  2  0
  7 11  1  0
  8  9  1  0
  9  5  1  0
  9 10  1  0
 10 13  1  0
 10 11  2  0
 11 12  1  0
 12 15  2  0
 13 14  2  0
 14 15  1  0
 16 17  2  0
 17 18  1  0
 14 16  1  0
 15 18  1  0
  6 13  1  0
M  END
>  <generation_date>  (249) 
None

>  <inchikey>  (249) 
WXNCMUCDEAHMII-UHFFFAOYSA-N

>  <ref_mols>  (249) 
cx0894e,cx0270a

>  <tags>  (249) 
['butcher: adenine', 'fragmenstein', 'select (HA) [arg144_pures]', 'select (DF) [arg144_pures]', 'arg144_pures', 'select (JA) [arg144_pures]', 'raw', 'butcher: arginine']

>  <ref_pdb>  (249) 
cx0270a

>  <alias>  (249) 
cx0270a-cx0894e

>  <submitter_name>  (249) 
None

>  <HIPPO ID>  (249) 
2764

>  <original ID>  (249) 
cx0270a-cx0894e

>  <method>  (249) 
None

>  <ref_url>  (249) 
None

>  <submitter_email>  (249) 
None

>  <original SMILES>  (249) 
CNC(=O)c1cn(C)c2c(Cl)c3nc[nH]c3cc12

$$$$
cx0270a-cx1268a
     RDKit          3D

 22 24  0  0  0  0  0  0  0  0999 V2000
   16.9074   10.5675   12.6402 O   0  0  0  0  0  0  0  0  0  0  0  0
   17.3087   11.1571   11.6485 C   0  0  0  0  0  0  0  0  0  0  0  0
   17.1222   10.6975   10.3756 N   0  0  0  0  0  0  0  0  0  0  0  0
   16.4547    9.4394   10.1371 C   0  0  0  0  0  0  0  0  0  0  0  0
   18.7056   15.6159   13.2332 C   0  0  0  0  0  0  0  0  0  0  0  0
   14.0095    9.6619    9.2486 O   0  0  0  0  0  0  0  0  0  0  0  0
   14.7282    9.2955   10.4571 S   0  0  0  0  0  6  0  0  0  0  0  0
   14.4891    8.0471   11.1557 O   0  0  0  0  0  0  0  0  0  0  0  0
   18.0600   12.3760   11.7641 C   0  0  0  0  0  0  0  0  0  0  0  0
   17.6646   13.4829   12.4873 C   0  0  0  0  0  0  0  0  0  0  0  0
   18.7136   14.3579   12.5220 N   0  0  0  0  0  0  0  0  0  0  0  0
   19.7927   13.8349   11.8419 C   0  0  0  0  0  0  0  0  0  0  0  0
   19.4037   12.5885   11.3501 C   0  0  0  0  0  0  0  0  0  0  0  0
   20.3524   11.7876   10.6839 C   0  0  0  0  0  0  0  0  0  0  0  0
   21.0915   14.3257   11.6563 C   0  0  0  0  0  0  0  0  0  0  0  0
   22.0109   13.5169   10.9800 C   0  0  0  0  0  0  0  0  0  0  0  0
   21.6532   12.2597   10.5086 C   0  0  0  0  0  0  0  0  0  0  0  0
   14.4004   10.6337   11.5900 C   0  0  0  0  0  0  0  0  0  0  0  0
   14.1845   11.9210   11.1655 N   0  0  0  0  0  0  0  0  0  0  0  0
   14.1182   12.7220   12.2637 C   0  0  0  0  0  0  0  0  0  0  0  0
   14.1574   11.8648   13.3333 C   0  0  0  0  0  0  0  0  0  0  0  0
   14.2790   10.5664   12.9087 N   0  0  0  0  0  0  0  0  0  0  0  0
  4  3  1  0
  3  2  1  0
  2  1  2  0
  8  7  2  0
  7  6  2  0
  7  4  1  0
  9  2  1  0
  9 10  2  0
  9 13  1  0
 10 11  1  0
 11  5  1  0
 11 12  1  0
 12 15  1  0
 12 13  2  0
 13 14  1  0
 14 17  2  0
 15 16  2  0
 16 17  1  0
 18  7  1  0
 18 19  1  0
 18 22  2  0
 19 20  1  0
 20 21  2  0
 21 22  1  0
M  END
>  <generation_date>  (250) 
None

>  <inchikey>  (250) 
IFJGDXDECFZXKC-UHFFFAOYSA-N

>  <ref_mols>  (250) 
cx0270a,cx1268a

>  <tags>  (250) 
['butcher: adenine', 'fragmenstein', 'select (HA) [arg144_pures]', 'select (DF) [arg144_pures]', 'arg144_pures', 'select (JA) [arg144_pures]', 'raw', 'butcher: arginine']

>  <ref_pdb>  (250) 
cx0270a

>  <alias>  (250) 
cx0270a-cx1268a

>  <submitter_name>  (250) 
None

>  <HIPPO ID>  (250) 
2776

>  <original ID>  (250) 
cx0270a-cx1268a

>  <method>  (250) 
None

>  <ref_url>  (250) 
None

>  <submitter_email>  (250) 
None

>  <original SMILES>  (250) 
Cn1cc(C(=O)NCS(=O)(=O)c2ncc[nH]2)c2ccccc21

$$$$
cx0270a-cx1338a
     RDKit          3D

 24 27  0  0  0  0  0  0  0  0999 V2000
   17.4426   10.6966   10.8510 C   0  0  0  0  0  0  0  0  0  0  0  0
   16.3026   10.8986    9.9739 N   0  0  0  0  0  0  0  0  0  0  0  0
   15.4302    9.7278    9.8321 C   0  0  0  0  0  0  0  0  0  0  0  0
   18.4388   15.1140   13.0545 C   0  0  0  0  0  0  0  0  0  0  0  0
   18.1259   11.9656   11.2589 C   0  0  0  0  0  0  0  0  0  0  0  0
   17.6034   13.0198   11.9845 C   0  0  0  0  0  0  0  0  0  0  0  0
   18.6043   13.8982   12.2886 N   0  0  0  0  0  0  0  0  0  0  0  0
   19.7929   13.4518   11.7622 C   0  0  0  0  0  0  0  0  0  0  0  0
   19.5227   12.2413   11.1187 C   0  0  0  0  0  0  0  0  0  0  0  0
   20.5929   11.5400   10.5316 C   0  0  0  0  0  0  0  0  0  0  0  0
   21.0845   13.9945   11.8159 C   0  0  0  0  0  0  0  0  0  0  0  0
   22.1208   13.2842   11.2043 C   0  0  0  0  0  0  0  0  0  0  0  0
   21.8823   12.0704   10.5730 C   0  0  0  0  0  0  0  0  0  0  0  0
   14.1371   13.3356   12.8984 N   0  0  0  0  0  0  0  0  0  0  0  0
   14.3878   12.0031   13.1603 C   0  0  0  0  0  0  0  0  0  0  0  0
   14.4950   11.2116   12.0956 N   0  0  0  0  0  0  0  0  0  0  0  0
   14.7475    9.8981   12.2507 C   0  0  0  0  0  0  0  0  0  0  0  0
   14.7668    9.3028   13.5198 C   0  0  0  0  0  0  0  0  0  0  0  0
   14.6580   10.1485   14.6295 C   0  0  0  0  0  0  0  0  0  0  0  0
   14.4908   11.5191   14.4449 C   0  0  0  0  0  0  0  0  0  0  0  0
   15.0415    9.0917   11.1431 C   0  0  0  0  0  0  0  0  0  0  0  0
   14.8967    7.9077   13.6437 C   0  0  0  0  0  0  0  0  0  0  0  0
   15.0083    7.1036   12.5118 C   0  0  0  0  0  0  0  0  0  0  0  0
   15.0878    7.6957   11.2607 C   0  0  0  0  0  0  0  0  0  0  0  0
  3  2  1  0
  2  1  1  0
  5  1  1  0
  5  6  2  0
  5  9  1  0
  6  7  1  0
  7  4  1  0
  7  8  1  0
  8 11  1  0
  8  9  2  0
  9 10  1  0
 10 13  2  0
 11 12  2  0
 12 13  1  0
 15 14  1  0
 15 20  2  0
 15 16  1  0
 16 17  2  0
 17 21  1  0
 17 18  1  0
 18 19  2  0
 18 22  1  0
 19 20  1  0
 21 24  2  0
 22 23  2  0
 23 24  1  0
  3 21  1  0
M  END
>  <generation_date>  (251) 
None

>  <inchikey>  (251) 
KFMQBLWKRFIPBE-UHFFFAOYSA-N

>  <ref_mols>  (251) 
cx1338a,cx0270a

>  <tags>  (251) 
['butcher: adenine', 'fragmenstein', 'select (HA) [arg144_pures]', 'arg144_pures', 'raw', 'butcher: arginine']

>  <ref_pdb>  (251) 
cx0270a

>  <alias>  (251) 
cx0270a-cx1338a

>  <submitter_name>  (251) 
None

>  <HIPPO ID>  (251) 
2784

>  <original ID>  (251) 
cx0270a-cx1338a

>  <method>  (251) 
None

>  <ref_url>  (251) 
None

>  <submitter_email>  (251) 
None

>  <original SMILES>  (251) 
Cn1cc(CNCc2cccc3ccc(N)nc23)c2ccccc21

$$$$
cx0270a-cx1445d
     RDKit          3D

 18 19  0  0  0  0  0  0  0  0999 V2000
   15.2686   10.6734   12.1592 O   0  0  0  0  0  0  0  0  0  0  0  0
   16.1988   10.9610   11.4113 C   0  0  0  0  0  0  0  0  0  0  0  0
   16.4262   10.2967   10.2284 N   0  0  0  0  0  0  0  0  0  0  0  0
   15.4827    9.3121    9.7726 C   0  0  0  0  0  0  0  0  0  0  0  0
   17.8376   15.1870   13.4070 C   0  0  0  0  0  0  0  0  0  0  0  0
   23.0646   13.7444   12.7973 O   0  0  0  0  0  0  0  0  0  0  0  0
   22.6924   13.1863   11.7696 C   0  0  0  0  0  0  0  0  0  0  0  0
   23.5541   12.9063   10.7552 N   0  0  0  0  0  0  0  0  0  0  0  0
   20.6711   14.6712   13.1026 O   0  0  0  0  0  0  0  0  0  0  0  0
   17.1211   12.0471   11.7228 C   0  0  0  0  0  0  0  0  0  0  0  0
   16.7523   13.1357   12.4972 C   0  0  0  0  0  0  0  0  0  0  0  0
   17.8454   13.9279   12.6924 N   0  0  0  0  0  0  0  0  0  0  0  0
   18.9563   13.3323   12.1391 C   0  0  0  0  0  0  0  0  0  0  0  0
   18.5168   12.2127   11.4246 C   0  0  0  0  0  0  0  0  0  0  0  0
   19.4826   11.4569   10.7201 C   0  0  0  0  0  0  0  0  0  0  0  0
   20.3140   13.6502   12.2618 C   0  0  0  0  0  0  0  0  0  0  0  0
   21.2599   12.8652   11.5824 C   0  0  0  0  0  0  0  0  0  0  0  0
   20.8449   11.7877   10.8003 C   0  0  0  0  0  0  0  0  0  0  0  0
  4  3  1  0
  3  2  1  0
  2  1  2  0
  8  7  1  0
  7  6  2  0
 10  2  1  0
 10 11  2  0
 10 14  1  0
 11 12  1  0
 12  5  1  0
 12 13  1  0
 13 16  1  0
 13 14  2  0
 14 15  1  0
 15 18  2  0
 16 17  2  0
 17 18  1  0
  7 17  1  0
  9 16  1  0
M  END
>  <generation_date>  (252) 
None

>  <inchikey>  (252) 
BHSNIPGLENZPPW-UHFFFAOYSA-N

>  <ref_mols>  (252) 
cx1445d,cx0270a

>  <tags>  (252) 
['butcher: adenine', 'fragmenstein', 'select (DF) [arg144_pures]', 'arg144_pures', 'raw', 'butcher: arginine']

>  <ref_pdb>  (252) 
cx0270a

>  <alias>  (252) 
cx0270a-cx1445d

>  <submitter_name>  (252) 
None

>  <HIPPO ID>  (252) 
2800

>  <original ID>  (252) 
cx0270a-cx1445d

>  <method>  (252) 
None

>  <ref_url>  (252) 
None

>  <submitter_email>  (252) 
None

>  <original SMILES>  (252) 
CNC(=O)c1cn(C)c2c(O)c(C(N)=O)ccc12

$$$$
cx0289a-cx0864d
     RDKit          3D

 25 28  0  0  0  0  0  0  0  0999 V2000
   15.0068   11.4612   10.1841 O   0  0  0  0  0  0  0  0  0  0  0  0
   15.7094   10.2001   10.2832 S   0  0  0  0  0  6  0  0  0  0  0  0
   15.4588    9.1347    9.3370 O   0  0  0  0  0  0  0  0  0  0  0  0
   14.7414    7.9243   15.7164 N   0  0  0  0  0  0  0  0  0  0  0  0
   17.3620   10.4233   10.3272 N   0  0  0  0  0  0  0  0  0  0  0  0
   15.5006    8.1415   12.0968 C   0  0  0  0  0  0  0  0  0  0  0  0
   15.4052    9.5196   11.8979 C   0  0  0  0  0  0  0  0  0  0  0  0
   15.0280   10.3579   12.9475 C   0  0  0  0  0  0  0  0  0  0  0  0
   14.8476    9.8250   14.2238 C   0  0  0  0  0  0  0  0  0  0  0  0
   15.0384    8.4615   14.4609 C   0  0  0  0  0  0  0  0  0  0  0  0
   15.2989    7.6177   13.3759 C   0  0  0  0  0  0  0  0  0  0  0  0
   20.3207   10.9521   10.1918 N   0  0  0  0  0  0  0  0  0  0  0  0
   17.9946   11.5082   10.9544 C   0  0  0  0  0  0  0  0  0  0  0  0
   17.4810   12.5772   11.7882 C   0  0  0  0  0  0  0  0  0  0  0  0
   18.4923   13.3899   12.1553 C   0  0  0  0  0  0  0  0  0  0  0  0
   19.6865   12.8525   11.5513 C   0  0  0  0  0  0  0  0  0  0  0  0
   25.3768   13.8971   10.8670 C   0  0  0  0  0  0  0  0  0  0  0  0
   24.1474   13.7917   11.5390 C   0  0  0  0  0  0  0  0  0  0  0  0
   23.3595   12.9887   10.7406 C   0  0  0  0  0  0  0  0  0  0  0  0
   24.1714   12.6403    9.6809 N   0  0  0  0  0  0  0  0  0  0  0  0
   25.3973   13.1904    9.7415 N   0  0  0  0  0  0  0  0  0  0  0  0
   21.6205   11.4191   10.2108 C   0  0  0  0  0  0  0  0  0  0  0  0
   22.0055   12.5580   10.8311 C   0  0  0  0  0  0  0  0  0  0  0  0
   20.9563   13.2927   11.5712 C   0  0  0  0  0  0  0  0  0  0  0  0
   19.3232   11.6406   10.8150 C   0  0  0  0  0  0  0  0  0  0  0  0
  3  2  2  0
  2  1  2  0
  5  2  1  0
  6 11  2  0
  6  7  1  0
  7  8  2  0
  7  2  1  0
  8  9  1  0
  9 10  2  0
 10  4  1  0
 10 11  1  0
 13  5  1  0
 13 14  1  0
 14 15  2  0
 15 16  1  0
 17 18  1  0
 17 21  2  0
 18 19  2  0
 19 23  1  0
 19 20  1  0
 20 21  1  0
 22 23  2  0
 23 24  1  0
 12 22  1  0
 12 25  1  0
 16 24  2  0
 16 25  1  0
 13 25  2  0
M  END
>  <generation_date>  (253) 
None

>  <inchikey>  (253) 
OYIAPMLQDFWTKP-UHFFFAOYSA-N

>  <ref_mols>  (253) 
cx0289a,cx0864d

>  <tags>  (253) 
['butcher: adenine', 'fragmenstein', 'select (DF) [arg144_pures]', 'arg144_pures', 'raw', 'butcher: arginine']

>  <ref_pdb>  (253) 
cx0270a

>  <alias>  (253) 
cx0289a-cx0864d

>  <submitter_name>  (253) 
None

>  <HIPPO ID>  (253) 
2814

>  <original ID>  (253) 
cx0289a-cx0864d

>  <method>  (253) 
None

>  <ref_url>  (253) 
None

>  <submitter_email>  (253) 
None

>  <original SMILES>  (253) 
Nc1ccc(S(=O)(=O)Nc2ccc3cc(-c4ccn[nH]4)c[nH]c2-3)cc1

$$$$
cx0289a-cx0969a
     RDKit          3D

 19 21  0  0  0  0  0  0  0  0999 V2000
   13.9482    8.6250   15.3450 N   0  0  0  0  0  0  0  0  0  0  0  0
   15.5725    8.2515   12.2734 C   0  0  0  0  0  0  0  0  0  0  0  0
   15.6705    9.7644   12.3122 C   0  0  1  0  0  0  0  0  0  0  0  0
   15.0874    8.8523   14.4800 C   0  0  1  0  0  0  0  0  0  0  0  0
   15.2432    7.7569   13.4736 C   0  0  0  0  0  0  0  0  0  0  0  0
   14.0353   12.3505   11.6933 C   0  0  0  0  0  0  0  0  0  0  0  0
   14.3530   12.5366   13.1646 C   0  0  0  0  0  0  0  0  0  0  0  0
   14.4739   11.2903   13.9853 C   0  0  0  0  0  0  0  0  0  0  0  0
   15.2656   10.4158   10.9781 C   0  0  1  0  0  0  0  0  0  0  0  0
   15.1248   11.8379   10.9668 O   0  0  0  0  0  0  0  0  0  0  0  0
   17.7240   10.2197   10.3149 N   0  0  0  0  0  0  0  0  0  0  0  0
   19.7810   11.1661   10.4179 N   0  0  0  0  0  0  0  0  0  0  0  0
   18.4757   11.2875   10.7330 C   0  0  0  0  0  0  0  0  0  0  0  0
   18.0582   12.3470   11.5187 C   0  0  0  0  0  0  0  0  0  0  0  0
   18.9725   13.3167   11.9427 C   0  0  0  0  0  0  0  0  0  0  0  0
   20.3072   13.1929   11.5990 C   0  0  0  0  0  0  0  0  0  0  0  0
   20.6647   12.0959   10.8478 C   0  0  0  0  0  0  0  0  0  0  0  0
   16.3200   10.1385    9.9023 C   0  0  0  0  0  0  0  0  0  0  0  0
   15.0044   10.1110   13.6284 C   0  0  0  0  0  0  0  0  0  0  0  0
  2  5  2  0
  3  2  1  6
  4  1  1  6
  4  5  1  0
  6  7  1  0
  6 10  1  0
  7  8  1  0
  9 10  1  0
  3  9  1  0
 12 17  2  0
 12 13  1  0
 13 11  1  0
 13 14  2  0
 14 15  1  0
 15 16  2  0
 16 17  1  0
 18 11  1  0
  9 18  1  6
 19  4  1  0
 19  8  2  0
  3 19  1  0
M  END
>  <generation_date>  (254) 
None

>  <inchikey>  (254) 
LNZBUKLTSPJBQX-RDBSUJKOSA-N

>  <ref_mols>  (254) 
cx0289a,cx0969a

>  <tags>  (254) 
['butcher: adenine', 'fragmenstein', 'select (DF) [arg144_pures]', 'arg144_pures', 'raw', 'butcher: arginine']

>  <ref_pdb>  (254) 
cx0270a

>  <alias>  (254) 
cx0289a-cx0969a

>  <submitter_name>  (254) 
None

>  <HIPPO ID>  (254) 
2820

>  <original ID>  (254) 
cx0289a-cx0969a

>  <method>  (254) 
None

>  <ref_url>  (254) 
None

>  <submitter_email>  (254) 
None

>  <original SMILES>  (254) 
N[C@H]1C=C[C@@H]2C1=CCCO[C@H]2CNc1ccccn1

$$$$
cx0289a-cx1271d
     RDKit          3D

 21 23  0  0  0  0  0  0  0  0999 V2000
   15.1347   11.5052   10.2577 O   0  0  0  0  0  0  0  0  0  0  0  0
   15.7600   10.2040   10.3115 S   0  0  0  0  0  6  0  0  0  0  0  0
   15.3835    9.1813    9.3566 O   0  0  0  0  0  0  0  0  0  0  0  0
   14.7786    7.8079   15.6955 N   0  0  0  0  0  0  0  0  0  0  0  0
   17.4300   10.2799   10.2563 N   0  0  0  0  0  0  0  0  0  0  0  0
   21.7359   12.3964   10.5210 N   0  0  0  0  0  0  0  0  0  0  0  0
   15.6066    8.1197   12.0969 C   0  0  0  0  0  0  0  0  0  0  0  0
   15.4591    9.4962   11.9154 C   0  0  0  0  0  0  0  0  0  0  0  0
   15.0024   10.2902   12.9663 C   0  0  0  0  0  0  0  0  0  0  0  0
   14.8211    9.7303   14.2309 C   0  0  0  0  0  0  0  0  0  0  0  0
   15.0756    8.3764   14.4541 C   0  0  0  0  0  0  0  0  0  0  0  0
   15.3981    7.5645   13.3624 C   0  0  0  0  0  0  0  0  0  0  0  0
   19.6872   11.2366   10.3760 N   0  0  0  0  0  0  0  0  0  0  0  0
   18.3502   11.3142   10.7535 C   0  0  0  0  0  0  0  0  0  0  0  0
   17.1449   12.9905   12.1785 C   0  0  0  0  0  0  0  0  0  0  0  0
   19.5795   13.0225   11.6335 C   0  0  0  0  0  0  0  0  0  0  0  0
   20.4368   12.2765   10.8661 C   0  0  0  0  0  0  0  0  0  0  0  0
   18.2591   12.4342   11.5531 C   0  0  0  0  0  0  0  0  0  0  0  0
   19.9106   14.1767   12.3397 C   0  0  0  0  0  0  0  0  0  0  0  0
   18.7824   14.7195   12.9888 C   0  0  0  0  0  0  0  0  0  0  0  0
   17.4682   14.1562   12.9099 C   0  0  0  0  0  0  0  0  0  0  0  0
  3  2  2  0
  2  1  2  0
  5  2  1  0
  7 12  2  0
  7  8  1  0
  8  9  2  0
  8  2  1  0
  9 10  1  0
 10 11  2  0
 11  4  1  0
 11 12  1  0
 13 17  1  0
 13 14  1  0
 14  5  1  0
 16 17  2  0
 19 20  2  0
 20 21  1  0
 16 18  1  0
 16 19  1  0
 15 21  2  0
 15 18  1  0
  6 17  1  0
 14 18  2  0
M  END
>  <generation_date>  (255) 
None

>  <inchikey>  (255) 
OROZIPSUGMATNY-UHFFFAOYSA-N

>  <ref_mols>  (255) 
cx0289a,cx1271d

>  <tags>  (255) 
['butcher: adenine', 'fragmenstein', 'select (DF) [arg144_pures]', 'arg144_pures', 'raw', 'butcher: arginine']

>  <ref_pdb>  (255) 
cx0270a

>  <alias>  (255) 
cx0289a-cx1271d

>  <submitter_name>  (255) 
None

>  <HIPPO ID>  (255) 
2833

>  <original ID>  (255) 
cx0289a-cx1271d

>  <method>  (255) 
None

>  <ref_url>  (255) 
None

>  <submitter_email>  (255) 
None

>  <original SMILES>  (255) 
Nc1ccc(S(=O)(=O)Nc2[nH]c(N)c3ccccc23)cc1

$$$$
cx0289a-cx1353b
     RDKit          3D

 18 19  0  0  0  0  0  0  0  0999 V2000
   15.0517   11.4301   10.1380 O   0  0  0  0  0  0  0  0  0  0  0  0
   15.7071   10.1436   10.2385 S   0  0  0  0  0  6  0  0  0  0  0  0
   15.3719    9.0689    9.3306 O   0  0  0  0  0  0  0  0  0  0  0  0
   14.7575    8.0100   15.7362 N   0  0  0  0  0  0  0  0  0  0  0  0
   17.3526   10.2956   10.2371 N   0  0  0  0  0  0  0  0  0  0  0  0
   21.6185   11.8519   10.5859 N   0  0  0  0  0  0  0  0  0  0  0  0
   15.5111    8.1400   12.1117 C   0  0  0  0  0  0  0  0  0  0  0  0
   15.4132    9.5129   11.8780 C   0  0  0  0  0  0  0  0  0  0  0  0
   15.0375   10.3775   12.9069 C   0  0  0  0  0  0  0  0  0  0  0  0
   14.8587    9.8750   14.1964 C   0  0  0  0  0  0  0  0  0  0  0  0
   15.0515    8.5176   14.4671 C   0  0  0  0  0  0  0  0  0  0  0  0
   15.3122    7.6476   13.4034 C   0  0  0  0  0  0  0  0  0  0  0  0
   19.4115   11.1484   10.5149 N   0  0  0  0  0  0  0  0  0  0  0  0
   18.1106   11.3271   10.8113 C   0  0  0  0  0  0  0  0  0  0  0  0
   17.6618   12.3538   11.6185 C   0  0  0  0  0  0  0  0  0  0  0  0
   18.5965   13.2723   12.0914 C   0  0  0  0  0  0  0  0  0  0  0  0
   19.9385   13.1151   11.7600 C   0  0  0  0  0  0  0  0  0  0  0  0
   20.3046   12.0340   10.9784 C   0  0  0  0  0  0  0  0  0  0  0  0
  3  2  2  0
  2  1  2  0
  5  2  1  0
  7 12  2  0
  7  8  1  0
  8  9  2  0
  8  2  1  0
  9 10  1  0
 10 11  2  0
 11  4  1  0
 11 12  1  0
 13 18  2  0
 13 14  1  0
 14  5  1  0
 14 15  2  0
 15 16  1  0
 16 17  2  0
 17 18  1  0
  6 18  1  0
M  END
>  <generation_date>  (256) 
None

>  <inchikey>  (256) 
OEJIOENYRJJYTB-UHFFFAOYSA-N

>  <ref_mols>  (256) 
cx0289a,cx1353b

>  <tags>  (256) 
['butcher: adenine', 'fragmenstein', 'select (DF) [arg144_pures]', 'arg144_pures', 'select (JA) [arg144_pures]', 'raw', 'butcher: arginine']

>  <ref_pdb>  (256) 
cx0270a

>  <alias>  (256) 
cx0289a-cx1353b

>  <submitter_name>  (256) 
None

>  <HIPPO ID>  (256) 
2841

>  <original ID>  (256) 
cx0289a-cx1353b

>  <method>  (256) 
None

>  <ref_url>  (256) 
None

>  <submitter_email>  (256) 
None

>  <original SMILES>  (256) 
Nc1ccc(S(=O)(=O)Nc2cccc(N)n2)cc1

$$$$
cx0289a-cx1371b
     RDKit          3D

 21 22  0  0  0  0  0  0  0  0999 V2000
   15.2785   11.4151   10.1378 O   0  0  0  0  0  0  0  0  0  0  0  0
   15.9805   10.1559   10.2610 S   0  0  0  0  0  6  0  0  0  0  0  0
   15.7132    9.0669    9.3481 O   0  0  0  0  0  0  0  0  0  0  0  0
   14.6939    8.0075   15.6920 N   0  0  0  0  0  0  0  0  0  0  0  0
   17.6396   10.3682   10.3275 N   0  0  0  0  0  0  0  0  0  0  0  0
   18.0273   14.6929   13.1360 Cl  0  0  0  0  0  0  0  0  0  0  0  0
   21.8788   12.5259   10.4408 C   0  0  0  0  0  0  0  0  0  0  0  0
   22.4627   11.5233   10.0609 O   0  0  0  0  0  0  0  0  0  0  0  0
   22.5216   13.7440   10.3861 N   0  0  0  0  0  0  0  0  0  0  0  0
   15.6428    8.1442   12.1132 C   0  0  0  0  0  0  0  0  0  0  0  0
   15.6005    9.5209   11.8850 C   0  0  0  0  0  0  0  0  0  0  0  0
   15.1726   10.3832   12.8962 C   0  0  0  0  0  0  0  0  0  0  0  0
   14.9095    9.8773   14.1703 C   0  0  0  0  0  0  0  0  0  0  0  0
   15.0630    8.5159   14.4433 C   0  0  0  0  0  0  0  0  0  0  0  0
   15.3609    7.6479   13.3884 C   0  0  0  0  0  0  0  0  0  0  0  0
   19.6414   11.4768   10.4989 N   0  0  0  0  0  0  0  0  0  0  0  0
   18.3317   11.4896   10.8384 C   0  0  0  0  0  0  0  0  0  0  0  0
   17.8068   12.4502   11.6707 C   0  0  0  0  0  0  0  0  0  0  0  0
   18.6574   13.4524   12.1279 C   0  0  0  0  0  0  0  0  0  0  0  0
   19.9939   13.4916   11.7682 C   0  0  0  0  0  0  0  0  0  0  0  0
   20.4497   12.4921   10.9354 C   0  0  0  0  0  0  0  0  0  0  0  0
  3  2  2  0
  2  1  2  0
  5  2  1  0
  9  7  1  0
  8  7  2  0
 10 15  2  0
 10 11  1  0
 11 12  2  0
 11  2  1  0
 12 13  1  0
 13 14  2  0
 14  4  1  0
 14 15  1  0
 16 21  2  0
 16 17  1  0
 17  5  1  0
 17 18  2  0
 18 19  1  0
 19 20  2  0
 20 21  1  0
  6 19  1  0
  7 21  1  0
M  END
>  <generation_date>  (257) 
None

>  <inchikey>  (257) 
UHUAQLPKGIXMRP-UHFFFAOYSA-N

>  <ref_mols>  (257) 
cx0289a,cx1371b

>  <tags>  (257) 
['butcher: adenine', 'fragmenstein', 'select (DF) [arg144_pures]', 'arg144_pures', 'raw', 'butcher: arginine']

>  <ref_pdb>  (257) 
cx0270a

>  <alias>  (257) 
cx0289a-cx1371b

>  <submitter_name>  (257) 
None

>  <HIPPO ID>  (257) 
2843

>  <original ID>  (257) 
cx0289a-cx1371b

>  <method>  (257) 
None

>  <ref_url>  (257) 
None

>  <submitter_email>  (257) 
None

>  <original SMILES>  (257) 
NC(=O)c1cc(Cl)cc(NS(=O)(=O)c2ccc(N)cc2)n1

$$$$
cx0289a-cx1379b
     RDKit          3D

 23 25  0  0  0  0  0  0  0  0999 V2000
   15.2825   11.3683   10.1332 O   0  0  0  0  0  0  0  0  0  0  0  0
   15.9175   10.0848   10.3211 S   0  0  0  0  0  6  0  0  0  0  0  0
   15.6933    8.9910    9.4044 O   0  0  0  0  0  0  0  0  0  0  0  0
   14.5992    8.0556   15.7720 N   0  0  0  0  0  0  0  0  0  0  0  0
   17.5913   10.2480   10.4789 N   0  0  0  0  0  0  0  0  0  0  0  0
   22.3387   12.2507   12.6359 O   0  0  0  0  0  0  0  0  0  0  0  0
   21.9503   12.3788   11.2741 C   0  0  0  0  0  0  0  0  0  0  0  0
   15.5431    8.1122   12.1929 C   0  0  0  0  0  0  0  0  0  0  0  0
   15.4771    9.4819   11.9323 C   0  0  0  0  0  0  0  0  0  0  0  0
   15.0416   10.3673   12.9179 C   0  0  0  0  0  0  0  0  0  0  0  0
   14.7871    9.8899   14.2036 C   0  0  0  0  0  0  0  0  0  0  0  0
   14.9565    8.5367   14.5095 C   0  0  0  0  0  0  0  0  0  0  0  0
   15.2649    7.6446   13.4780 C   0  0  0  0  0  0  0  0  0  0  0  0
   19.6809   11.2858   10.9836 N   0  0  0  0  0  0  0  0  0  0  0  0
   18.2352   11.5010   10.8393 C   0  0  2  0  0  0  0  0  0  0  0  0
   17.6411   12.2716   12.0208 C   0  0  0  0  0  0  0  0  0  0  0  0
   18.5104   13.4326   12.4102 C   0  0  0  0  0  0  0  0  0  0  0  0
   19.7719   13.5779   11.9672 C   0  0  0  0  0  0  0  0  0  0  0  0
   20.4210   12.5813   11.0378 C   0  0  1  0  0  0  0  0  0  0  0  0
   20.5413   14.6756   12.3205 O   0  0  0  0  0  0  0  0  0  0  0  0
   17.9039   14.3711   13.2250 O   0  0  0  0  0  0  0  0  0  0  0  0
   18.6451   15.4602   13.6058 C   0  0  0  0  0  3  0  0  0  0  0  0
   19.9984   15.5855   13.1913 C   0  0  0  0  0  3  0  0  0  0  0  0
  3  2  2  0
  2  1  2  0
  5  2  1  0
  7  6  1  0
  8 13  2  0
  8  9  1  0
  9 10  2  0
  9  2  1  0
 10 11  1  0
 11 12  2  0
 12  4  1  0
 12 13  1  0
 14 19  1  0
 14 15  1  0
 15  5  1  1
 15 16  1  0
 16 17  1  0
 17 18  2  0
 18 19  1  0
 20 23  1  0
 21 22  1  0
 22 23  1  0
 17 21  1  0
 18 20  1  0
 19  7  1  1
M  RAD  2  22   2  23   2
M  END
>  <generation_date>  (258) 
None

>  <inchikey>  (258) 
IFERQXGJVWKAMM-YPMHNXCESA-N

>  <ref_mols>  (258) 
cx0289a,cx1379b

>  <tags>  (258) 
['butcher: adenine', 'fragmenstein', 'select (DF) [arg144_pures]', 'arg144_pures', 'raw', 'butcher: arginine']

>  <ref_pdb>  (258) 
cx0270a

>  <alias>  (258) 
cx0289a-cx1379b

>  <submitter_name>  (258) 
None

>  <HIPPO ID>  (258) 
2845

>  <original ID>  (258) 
cx0289a-cx1379b

>  <method>  (258) 
None

>  <ref_url>  (258) 
None

>  <submitter_email>  (258) 
None

>  <original SMILES>  (258) 
Nc1ccc(S(=O)(=O)N[C@H]2CC3=C(O[CH][CH]O3)[C@@H](CO)N2)cc1

$$$$
cx0289a-cx1431d
     RDKit          3D

 21 23  0  0  0  0  0  0  0  0999 V2000
   15.1508   11.3855   10.1308 O   0  0  0  0  0  0  0  0  0  0  0  0
   15.7705   10.0939   10.3132 S   0  0  0  0  0  6  0  0  0  0  0  0
   15.5172    9.0018    9.4009 O   0  0  0  0  0  0  0  0  0  0  0  0
   14.6278    8.0724   15.8031 N   0  0  0  0  0  0  0  0  0  0  0  0
   17.4356   10.2310   10.4391 N   0  0  0  0  0  0  0  0  0  0  0  0
   17.0895   15.2853   12.9292 N   0  0  0  0  0  0  0  0  0  0  0  0
   15.4766    8.1275   12.2010 C   0  0  0  0  0  0  0  0  0  0  0  0
   15.3724    9.4941   11.9350 C   0  0  0  0  0  0  0  0  0  0  0  0
   14.9526   10.3784   12.9276 C   0  0  0  0  0  0  0  0  0  0  0  0
   14.7436    9.9029   14.2222 C   0  0  0  0  0  0  0  0  0  0  0  0
   14.9439    8.5538   14.5293 C   0  0  0  0  0  0  0  0  0  0  0  0
   15.2420    7.6615   13.4949 C   0  0  0  0  0  0  0  0  0  0  0  0
   19.5381   11.1532   10.9060 N   0  0  0  0  0  0  0  0  0  0  0  0
   18.1107   11.4567   10.8209 C   0  0  2  0  0  0  0  0  0  0  0  0
   17.5588   12.2323   12.0353 C   0  0  0  0  0  0  0  0  0  0  0  0
   18.4894   13.3447   12.4006 C   0  0  0  0  0  0  0  0  0  0  0  0
   19.7480   13.4034   11.9447 C   0  0  0  0  0  0  0  0  0  0  0  0
   20.3729   12.3510   11.0834 C   0  0  0  0  0  0  0  0  0  0  0  0
   18.2098   14.4659   13.3500 C   0  0  1  0  0  0  0  0  0  0  0  0
   20.4123   14.5256   12.4021 N   0  0  0  0  0  0  0  0  0  0  0  0
   19.5990   15.1895   13.4280 C   0  0  0  0  0  0  0  0  0  0  0  0
  3  2  2  0
  2  1  2  0
  5  2  1  0
  7 12  2  0
  7  8  1  0
  8  9  2  0
  8  2  1  0
  9 10  1  0
 10 11  2  0
 11  4  1  0
 11 12  1  0
 13 18  1  0
 13 14  1  0
 14  5  1  1
 14 15  1  0
 15 16  1  0
 16 17  2  0
 17 18  1  0
 19  6  1  6
 19 21  1  0
 20 21  1  0
 16 19  1  0
 17 20  1  0
M  END
>  <generation_date>  (259) 
None

>  <inchikey>  (259) 
QBZHSVOZXRMXDY-YPMHNXCESA-N

>  <ref_mols>  (259) 
cx0289a,cx1431d

>  <tags>  (259) 
['butcher: adenine', 'fragmenstein', 'select (DF) [arg144_pures]', 'arg144_pures', 'raw', 'butcher: arginine']

>  <ref_pdb>  (259) 
cx0270a

>  <alias>  (259) 
cx0289a-cx1431d

>  <submitter_name>  (259) 
None

>  <HIPPO ID>  (259) 
2854

>  <original ID>  (259) 
cx0289a-cx1431d

>  <method>  (259) 
None

>  <ref_url>  (259) 
None

>  <submitter_email>  (259) 
None

>  <original SMILES>  (259) 
Nc1ccc(S(=O)(=O)N[C@H]2CC3=C(CN2)NC[C@H]3N)cc1

$$$$
cx0289a-cx1440b
     RDKit          3D

 22 24  0  0  0  0  0  0  0  0999 V2000
   15.1433   11.4557   10.1721 O   0  0  0  0  0  0  0  0  0  0  0  0
   15.8016   10.1705   10.2635 S   0  0  0  0  0  6  0  0  0  0  0  0
   15.4613    9.0991    9.3530 O   0  0  0  0  0  0  0  0  0  0  0  0
   14.7453    8.0235   15.7367 N   0  0  0  0  0  0  0  0  0  0  0  0
   17.4505   10.3178   10.2583 N   0  0  0  0  0  0  0  0  0  0  0  0
   21.7501   11.7940   10.5128 N   0  0  0  0  0  0  0  0  0  0  0  0
   15.5368    8.1584   12.1207 C   0  0  0  0  0  0  0  0  0  0  0  0
   15.4941    9.5362   11.8990 C   0  0  0  0  0  0  0  0  0  0  0  0
   15.1420   10.4049   12.9330 C   0  0  0  0  0  0  0  0  0  0  0  0
   14.9304    9.8976   14.2157 C   0  0  0  0  0  0  0  0  0  0  0  0
   15.0704    8.5315   14.4754 C   0  0  0  0  0  0  0  0  0  0  0  0
   15.3090    7.6622   13.4060 C   0  0  0  0  0  0  0  0  0  0  0  0
   19.5248   11.1536   10.4945 N   0  0  0  0  0  0  0  0  0  0  0  0
   18.2305   11.3522   10.8046 C   0  0  0  0  0  0  0  0  0  0  0  0
   17.8069   12.3927   11.6040 C   0  0  0  0  0  0  0  0  0  0  0  0
   18.7588   13.3138   12.0715 C   0  0  0  0  0  0  0  0  0  0  0  0
   20.1193   13.1382   11.7379 C   0  0  0  0  0  0  0  0  0  0  0  0
   20.4459   12.0276   10.9422 C   0  0  0  0  0  0  0  0  0  0  0  0
   21.0680   14.0755   12.2094 C   0  0  0  0  0  0  0  0  0  0  0  0
   18.3850   14.4163   12.8606 C   0  0  0  0  0  0  0  0  0  0  0  0
   19.3388   15.3271   13.3220 C   0  0  0  0  0  0  0  0  0  0  0  0
   20.6805   15.1551   13.0013 C   0  0  0  0  0  0  0  0  0  0  0  0
  3  2  2  0
  2  1  2  0
  5  2  1  0
  7 12  2  0
  7  8  1  0
  8  9  2  0
  8  2  1  0
  9 10  1  0
 10 11  2  0
 11  4  1  0
 11 12  1  0
 13 18  2  0
 13 14  1  0
 14  5  1  0
 14 15  2  0
 15 16  1  0
 16 17  2  0
 17 18  1  0
 19 22  2  0
 20 21  2  0
 21 22  1  0
 16 20  1  0
 17 19  1  0
  6 18  1  0
M  END
>  <generation_date>  (260) 
None

>  <inchikey>  (260) 
JJNXHPKHZIRGNT-UHFFFAOYSA-N

>  <ref_mols>  (260) 
cx0289a,cx1440b

>  <tags>  (260) 
['butcher: adenine', 'fragmenstein', 'select (DF) [arg144_pures]', 'arg144_pures', 'select (JA) [arg144_pures]', 'raw', 'butcher: arginine']

>  <ref_pdb>  (260) 
cx0270a

>  <alias>  (260) 
cx0289a-cx1440b

>  <submitter_name>  (260) 
None

>  <HIPPO ID>  (260) 
2856

>  <original ID>  (260) 
cx0289a-cx1440b

>  <method>  (260) 
None

>  <ref_url>  (260) 
None

>  <submitter_email>  (260) 
None

>  <original SMILES>  (260) 
Nc1ccc(S(=O)(=O)Nc2cc3ccccc3c(N)n2)cc1

$$$$
cx0289a-cx1444a
     RDKit          3D

 22 25  0  0  0  0  0  0  0  0999 V2000
   16.6048   10.2818   10.5358 S   0  0  2  0  0  4  0  0  0  0  0  0
   15.6206    9.9846    9.3187 O   0  0  0  0  0  0  0  0  0  0  0  0
   14.9407    8.6490   15.8510 N   0  0  0  0  0  0  0  0  0  0  0  0
   18.2153   10.2468   10.3033 N   0  0  0  0  0  0  0  0  0  0  0  0
   16.0013    8.2635   12.3361 C   0  0  0  0  0  0  0  0  0  0  0  0
   15.8534    9.5661   11.9212 C   0  0  0  0  0  0  0  0  0  0  0  0
   15.0774   10.4768   12.6148 C   0  0  0  0  0  0  0  0  0  0  0  0
   14.9679   10.2936   13.9963 C   0  0  0  0  0  0  0  0  0  0  0  0
   15.2611    8.9973   14.5242 C   0  0  0  0  0  0  0  0  0  0  0  0
   15.6434    7.9669   13.6457 C   0  0  0  0  0  0  0  0  0  0  0  0
   20.3373   11.1757   10.3289 N   0  0  0  0  0  0  0  0  0  0  0  0
   19.0537   11.2903   10.7077 C   0  0  0  0  0  0  0  0  0  0  0  0
   18.6445   12.3596   11.5109 C   0  0  0  0  0  0  0  0  0  0  0  0
   19.5599   13.3411   11.8864 C   0  0  0  0  0  0  0  0  0  0  0  0
   20.8785   13.2200   11.4845 C   0  0  0  0  0  0  0  0  0  0  0  0
   21.2204   12.1198   10.7236 C   0  0  0  0  0  0  0  0  0  0  0  0
   14.2973   10.3240    9.7085 C   0  0  0  0  0  0  0  0  0  0  0  0
   14.2496   11.5907   10.5225 N   0  0  0  0  0  0  0  0  0  0  0  0
   14.4485   11.5524   11.9374 C   0  0  0  0  0  0  0  0  0  0  0  0
   14.1215   12.6686   12.6954 C   0  0  0  0  0  0  0  0  0  0  0  0
   14.2335   12.6303   14.0844 C   0  0  0  0  0  0  0  0  0  0  0  0
   14.6011   11.4415   14.7277 C   0  0  0  0  0  0  0  0  0  0  0  0
  2  1  1  0
  1  4  1  6
  5 10  1  0
  5  6  2  0
  6  7  1  0
  6  1  1  0
  7  8  2  0
  8  9  1  0
  9  3  1  0
  9 10  2  0
 11 16  2  0
 11 12  1  0
 12  4  1  0
 12 13  2  0
 13 14  1  0
 14 15  2  0
 15 16  1  0
 17 18  1  0
 18 19  1  0
 19 20  2  0
 20 21  1  0
 21 22  2  0
  7 19  1  0
  8 22  1  0
  2 17  1  0
M  END
>  <generation_date>  (261) 
None

>  <inchikey>  (261) 
WMAVVGHHCTWCET-UHFFFAOYSA-N

>  <ref_mols>  (261) 
cx0289a,cx1444a

>  <tags>  (261) 
['butcher: adenine', 'fragmenstein', 'select (HA) [arg144_pures]', 'arg144_pures', 'raw', 'butcher: arginine']

>  <ref_pdb>  (261) 
cx0270a

>  <alias>  (261) 
cx0289a-cx1444a

>  <submitter_name>  (261) 
None

>  <HIPPO ID>  (261) 
2859

>  <original ID>  (261) 
cx0289a-cx1444a

>  <method>  (261) 
None

>  <ref_url>  (261) 
None

>  <submitter_email>  (261) 
None

>  <original SMILES>  (261) 
Nc1ccc2c3c(cccc13)NCO[S@@H]2Nc1ccccn1

$$$$
cx0289a-cx1445b
     RDKit          3D

 21 22  0  0  0  0  0  0  0  0999 V2000
   15.2071   11.5562   10.2844 O   0  0  0  0  0  0  0  0  0  0  0  0
   15.8212   10.2487   10.3213 S   0  0  0  0  0  6  0  0  0  0  0  0
   15.4016    9.2124    9.4019 O   0  0  0  0  0  0  0  0  0  0  0  0
   14.7845    8.0463   15.7684 N   0  0  0  0  0  0  0  0  0  0  0  0
   17.4650   10.3322   10.2319 N   0  0  0  0  0  0  0  0  0  0  0  0
   21.5713   14.6242   12.6255 O   0  0  0  0  0  0  0  0  0  0  0  0
   21.7284   13.5657   12.0217 C   0  0  0  0  0  0  0  0  0  0  0  0
   22.9862   13.1094   11.7366 N   0  0  0  0  0  0  0  0  0  0  0  0
   18.9718   14.1922   12.7935 O   0  0  0  0  0  0  0  0  0  0  0  0
   15.4973    8.2117   12.1384 C   0  0  0  0  0  0  0  0  0  0  0  0
   15.5574    9.5944   11.9519 C   0  0  0  0  0  0  0  0  0  0  0  0
   15.3187   10.4628   13.0178 C   0  0  0  0  0  0  0  0  0  0  0  0
   15.0961    9.9397   14.2920 C   0  0  0  0  0  0  0  0  0  0  0  0
   15.1254    8.5595   14.5132 C   0  0  0  0  0  0  0  0  0  0  0  0
   15.2674    7.7017   13.4176 C   0  0  0  0  0  0  0  0  0  0  0  0
   19.6007   10.9382   10.3682 N   0  0  0  0  0  0  0  0  0  0  0  0
   18.3551   11.2857   10.7432 C   0  0  0  0  0  0  0  0  0  0  0  0
   18.1173   12.3729   11.5516 C   0  0  0  0  0  0  0  0  0  0  0  0
   19.2313   13.1295   11.9638 C   0  0  0  0  0  0  0  0  0  0  0  0
   20.5402   12.7898   11.5809 C   0  0  0  0  0  0  0  0  0  0  0  0
   20.6574   11.6792   10.7780 C   0  0  0  0  0  0  0  0  0  0  0  0
  3  2  2  0
  2  1  2  0
  5  2  1  0
  8  7  1  0
  7  6  2  0
 10 15  2  0
 10 11  1  0
 11 12  2  0
 11  2  1  0
 12 13  1  0
 13 14  2  0
 14  4  1  0
 14 15  1  0
 16 21  2  0
 16 17  1  0
 17  5  1  0
 17 18  2  0
 18 19  1  0
 19 20  2  0
 20 21  1  0
  7 20  1  0
  9 19  1  0
M  END
>  <generation_date>  (262) 
None

>  <inchikey>  (262) 
BXOMIYYNISMELG-UHFFFAOYSA-N

>  <ref_mols>  (262) 
cx0289a,cx1445b

>  <tags>  (262) 
['butcher: adenine', 'fragmenstein', 'select (DF) [arg144_pures]', 'arg144_pures', 'raw', 'butcher: arginine']

>  <ref_pdb>  (262) 
cx0270a

>  <alias>  (262) 
cx0289a-cx1445b

>  <submitter_name>  (262) 
None

>  <HIPPO ID>  (262) 
2861

>  <original ID>  (262) 
cx0289a-cx1445b

>  <method>  (262) 
None

>  <ref_url>  (262) 
None

>  <submitter_email>  (262) 
None

>  <original SMILES>  (262) 
NC(=O)c1cnc(NS(=O)(=O)c2ccc(N)cc2)cc1O

$$$$
cx0312a-cx0289a
     RDKit          3D

 26 28  0  0  0  0  0  0  0  0999 V2000
   21.3556   14.3610   14.2120 O   0  0  0  0  0  0  0  0  0  0  0  0
   21.0038   15.3903   13.6428 C   0  0  0  0  0  0  0  0  0  0  0  0
   21.9068   16.4519   13.4534 N   0  0  0  0  0  0  0  0  0  0  0  0
   21.4411   17.8262   13.5593 C   0  0  0  0  0  0  0  0  0  0  0  0
   23.2647   16.2127   13.9319 C   0  0  0  0  0  0  0  0  0  0  0  0
   19.6068   15.5719   13.0852 C   0  0  0  0  0  0  0  0  0  0  0  0
   15.2261   11.5712   10.3588 O   0  0  0  0  0  0  0  0  0  0  0  0
   15.8760   10.2815   10.3817 S   0  0  0  0  0  6  0  0  0  0  0  0
   15.4950    9.2606    9.4267 O   0  0  0  0  0  0  0  0  0  0  0  0
   14.7995    7.8296   15.7213 N   0  0  0  0  0  0  0  0  0  0  0  0
   17.5337   10.4079   10.2745 N   0  0  0  0  0  0  0  0  0  0  0  0
   18.9240   14.3348   12.7066 N   0  0  0  0  0  0  0  0  0  0  0  0
   17.5886   14.2682   12.8934 N   0  0  0  0  0  0  0  0  0  0  0  0
   17.2230   13.1845   12.2073 C   0  0  0  0  0  0  0  0  0  0  0  0
   18.2949   12.5024   11.5952 C   0  0  0  0  0  0  0  0  0  0  0  0
   19.4056   13.3053   11.9238 C   0  0  0  0  0  0  0  0  0  0  0  0
   20.7082   13.0289   11.4844 C   0  0  0  0  0  0  0  0  0  0  0  0
   18.4775   11.3721   10.7676 C   0  0  0  0  0  0  0  0  0  0  0  0
   19.8101   11.1211   10.3566 C   0  0  0  0  0  0  0  0  0  0  0  0
   20.9012   11.9043   10.7098 C   0  0  0  0  0  0  0  0  0  0  0  0
   15.6406    8.1738   12.1289 C   0  0  0  0  0  0  0  0  0  0  0  0
   15.5959    9.5624   11.9824 C   0  0  0  0  0  0  0  0  0  0  0  0
   15.2066   10.3603   13.0569 C   0  0  0  0  0  0  0  0  0  0  0  0
   14.9830    9.7818   14.3065 C   0  0  0  0  0  0  0  0  0  0  0  0
   15.1370    8.4074   14.4938 C   0  0  0  0  0  0  0  0  0  0  0  0
   15.3983    7.6026   13.3811 C   0  0  0  0  0  0  0  0  0  0  0  0
  5  3  1  0
  4  3  1  0
  3  2  1  0
  2  1  2  0
  6  2  1  0
  9  8  2  0
  8  7  2  0
 11  8  1  0
 12  6  1  0
 12 13  1  0
 12 16  1  0
 13 14  2  0
 14 15  1  0
 15 18  1  0
 15 16  2  0
 16 17  1  0
 17 20  2  0
 18 19  2  0
 19 20  1  0
 21 26  2  0
 21 22  1  0
 22 23  2  0
 22  8  1  0
 23 24  1  0
 24 25  2  0
 25 10  1  0
 25 26  1  0
 11 18  1  0
M  END
>  <generation_date>  (263) 
None

>  <inchikey>  (263) 
KQRREYLSTIQZCX-UHFFFAOYSA-N

>  <ref_mols>  (263) 
cx0289a,cx0312a

>  <tags>  (263) 
['butcher: adenine', 'fragmenstein', 'select (DF) [arg144_pures]', 'arg144_pures', 'raw', 'butcher: arginine']

>  <ref_pdb>  (263) 
cx0270a

>  <alias>  (263) 
cx0312a-cx0289a

>  <submitter_name>  (263) 
None

>  <HIPPO ID>  (263) 
2865

>  <original ID>  (263) 
cx0312a-cx0289a

>  <method>  (263) 
None

>  <ref_url>  (263) 
None

>  <submitter_email>  (263) 
None

>  <original SMILES>  (263) 
CN(C)C(=O)Cn1ncc2c(NS(=O)(=O)c3ccc(N)cc3)cccc21

$$$$
cx0312a-cx0399d
     RDKit          3D

 20 22  0  0  0  0  0  0  0  0999 V2000
   21.5914   14.4588   13.8860 O   0  0  0  0  0  0  0  0  0  0  0  0
   21.2925   15.7468   13.4062 C   0  0  0  0  0  0  0  0  0  0  0  0
   21.9106   16.6454   14.3753 N   0  0  0  0  0  0  0  0  0  0  0  0
   21.5011   18.0381   14.2565 C   0  0  0  0  0  0  0  0  0  0  0  0
   23.3858   16.5872   14.3033 C   0  0  0  0  0  0  0  0  0  0  0  0
   19.7567   15.7980   13.2156 C   0  0  1  0  0  0  0  0  0  0  0  0
   21.9142   15.9805   12.1574 O   0  0  0  0  0  0  0  0  0  0  0  0
   19.2365   16.9011   12.2786 C   0  0  0  0  0  0  0  0  0  0  0  0
   19.1041   14.5123   12.7207 C   0  0  0  0  0  0  0  0  0  0  0  0
   17.8216   14.2873   12.9697 N   0  0  0  0  0  0  0  0  0  0  0  0
   17.5059   13.1131   12.3176 C   0  0  0  0  0  0  0  0  0  0  0  0
   18.5264   12.5596   11.6558 C   0  0  0  0  0  0  0  0  0  0  0  0
   19.6825   13.4300   11.8780 C   0  0  0  0  0  0  0  0  0  0  0  0
   20.8477   13.0548   11.3286 C   0  0  0  0  0  0  0  0  0  0  0  0
   18.5551   11.3816   10.8239 C   0  0  0  0  0  0  0  0  0  0  0  0
   19.7406   11.0225   10.3003 C   0  0  0  0  0  0  0  0  0  0  0  0
   20.9200   11.7940   10.6088 C   0  0  0  0  0  0  0  0  0  0  0  0
   22.0950   13.6189   11.3089 N   0  0  0  0  0  0  0  0  0  0  0  0
   22.8483   12.7500   10.7045 C   0  0  0  0  0  0  0  0  0  0  0  0
   22.1722   11.5555   10.2209 C   0  0  0  0  0  0  0  0  0  0  0  0
  5  3  1  0
  4  3  1  0
  3  2  1  0
  2  1  1  0
  6  2  1  0
  7  2  1  0
  6  8  1  6
  9  6  1  0
  9 10  2  0
  9 13  1  0
 10 11  1  0
 11 12  2  0
 12 15  1  0
 12 13  1  0
 13 14  2  0
 14 17  1  0
 15 16  2  0
 16 17  1  0
 18 19  2  0
 19 20  1  0
 14 18  1  0
 17 20  2  0
M  END
>  <generation_date>  (264) 
None

>  <inchikey>  (264) 
JKHGQSZLADQCPM-VIFPVBQESA-N

>  <ref_mols>  (264) 
cx0399d,cx0312a

>  <tags>  (264) 
['butcher: adenine', 'fragmenstein', 'select (DF) [arg144_pures]', 'arg144_pures', 'raw', 'butcher: arginine']

>  <ref_pdb>  (264) 
cx0270a

>  <alias>  (264) 
cx0312a-cx0399d

>  <submitter_name>  (264) 
None

>  <HIPPO ID>  (264) 
2870

>  <original ID>  (264) 
cx0312a-cx0399d

>  <method>  (264) 
None

>  <ref_url>  (264) 
None

>  <submitter_email>  (264) 
None

>  <original SMILES>  (264) 
C[C@@H](C1=NC=c2ccc3c(c21)N=CC=3)C(O)(O)N(C)C

$$$$
cx0312a-cx0935a
     RDKit          3D

 24 26  0  0  0  0  0  0  0  0999 V2000
   21.3139   14.6660   14.5781 O   0  0  0  0  0  0  0  0  0  0  0  0
   21.0766   15.5829   13.7964 C   0  0  0  0  0  0  0  0  0  0  0  0
   22.0312   16.5762   13.5186 N   0  0  0  0  0  0  0  0  0  0  0  0
   21.6101   17.9661   13.5820 C   0  0  0  0  0  0  0  0  0  0  0  0
   23.3663   16.3113   14.0411 C   0  0  0  0  0  0  0  0  0  0  0  0
   19.7707   15.6708   13.0344 C   0  0  0  0  0  0  0  0  0  0  0  0
   16.8964   11.9558   11.7868 C   0  0  0  0  0  0  0  0  0  0  0  0
   16.9227   10.8503   10.8273 N   0  0  0  0  0  0  0  0  0  0  0  0
   13.3370    6.6361   11.0999 O   0  0  0  0  0  0  0  0  0  0  0  0
   19.4038   14.3933   12.4430 N   0  0  0  0  0  0  0  0  0  0  0  0
   18.1072   13.9970   12.4827 N   0  0  0  0  0  0  0  0  0  0  0  0
   18.1205   12.8149   11.8478 C   0  0  0  0  0  0  0  0  0  0  0  0
   19.4045   12.4979   11.3404 C   0  0  0  0  0  0  0  0  0  0  0  0
   20.2176   13.5574   11.7147 C   0  0  0  0  0  0  0  0  0  0  0  0
   21.5796   13.5977   11.3814 C   0  0  0  0  0  0  0  0  0  0  0  0
   19.9661   11.4206   10.6371 C   0  0  0  0  0  0  0  0  0  0  0  0
   21.3314   11.4203   10.3594 C   0  0  0  0  0  0  0  0  0  0  0  0
   22.1233   12.5023   10.7100 C   0  0  0  0  0  0  0  0  0  0  0  0
   15.9792    9.8357   10.9335 C   0  0  0  0  0  0  0  0  0  0  0  0
   15.6290    9.2701   12.1640 C   0  0  0  0  0  0  0  0  0  0  0  0
   14.7800    8.1698   12.2324 C   0  0  0  0  0  0  0  0  0  0  0  0
   14.2350    7.6599   11.0630 C   0  0  0  0  0  0  0  0  0  0  0  0
   14.5411    8.2192    9.8347 C   0  0  0  0  0  0  0  0  0  0  0  0
   15.4408    9.2803    9.7685 C   0  0  0  0  0  0  0  0  0  0  0  0
  5  3  1  0
  4  3  1  0
  3  2  1  0
  2  1  2  0
  6  2  1  0
  8  7  1  0
 10  6  1  0
 10 11  1  0
 10 14  1  0
 11 12  2  0
 12 13  1  0
 13 16  1  0
 13 14  2  0
 14 15  1  0
 15 18  2  0
 16 17  2  0
 17 18  1  0
 19  8  1  0
 19 24  1  0
 19 20  2  0
 20 21  1  0
 21 22  2  0
 22 23  1  0
 22  9  1  0
 23 24  2  0
 12  7  1  0
M  END
>  <generation_date>  (265) 
None

>  <inchikey>  (265) 
WLFMTZKZYACXSW-UHFFFAOYSA-N

>  <ref_mols>  (265) 
cx0935a,cx0312a

>  <tags>  (265) 
['butcher: adenine', 'fragmenstein', 'select (DF) [arg144_pures]', 'arg144_pures', 'raw', 'butcher: arginine']

>  <ref_pdb>  (265) 
cx0270a

>  <alias>  (265) 
cx0312a-cx0935a

>  <submitter_name>  (265) 
None

>  <HIPPO ID>  (265) 
2889

>  <original ID>  (265) 
cx0312a-cx0935a

>  <method>  (265) 
None

>  <ref_url>  (265) 
None

>  <submitter_email>  (265) 
None

>  <original SMILES>  (265) 
CN(C)C(=O)Cn1nc(CNc2ccc(O)cc2)c2ccccc21

$$$$
cx0312a-cx1213b
     RDKit          3D

 17 17  0  0  0  0  0  0  0  0999 V2000
   22.5432   16.5862   13.5913 N   0  0  0  0  0  0  0  0  0  0  0  0
   21.8637   17.7856   14.0887 C   0  0  0  0  0  0  0  0  0  0  0  0
   23.9851   16.7237   13.8405 C   0  0  0  0  0  0  0  0  0  0  0  0
   18.7724   16.2217   12.9258 C   0  0  0  0  0  0  0  0  0  0  0  0
   17.6407   15.3847   12.5711 N   0  0  0  0  0  0  0  0  0  0  0  0
   17.6154   14.1913   13.3656 N   0  0  0  0  0  0  0  0  0  0  0  0
   17.3905   13.0348   12.4875 C   0  0  0  0  0  0  0  0  0  0  0  0
   18.6084   12.5343   11.7521 C   0  0  0  0  0  0  0  0  0  0  0  0
   19.9257   12.9392   12.0428 C   0  0  0  0  0  0  0  0  0  0  0  0
   21.0501   12.3840   11.4120 C   0  0  0  0  0  0  0  0  0  0  0  0
   18.4345   11.5174   10.8254 C   0  0  0  0  0  0  0  0  0  0  0  0
   19.5421   10.9520   10.2169 C   0  0  0  0  0  0  0  0  0  0  0  0
   20.8356   11.3524   10.5170 C   0  0  0  0  0  0  0  0  0  0  0  0
   22.0157   15.3800   14.2680 C   0  0  0  0  0  0  0  0  0  0  0  0
   22.6025   14.0746   13.7378 C   0  0  0  0  0  0  0  0  0  0  0  0
   22.6513   14.0281   12.2159 C   0  0  0  0  0  0  0  0  0  0  0  0
   22.3748   12.6893   11.7323 N   0  0  0  0  0  0  0  0  0  0  0  0
  3  1  1  0
  2  1  1  0
  5  4  1  0
  5  6  1  0
  6  7  1  0
  7  8  1  0
  8 11  2  0
  8  9  1  0
  9 10  2  0
 10 13  1  0
 11 12  1  0
 12 13  2  0
 14 15  1  0
 15 16  1  0
 16 17  1  0
 10 17  1  0
 14  1  1  0
M  END
>  <generation_date>  (266) 
None

>  <inchikey>  (266) 
OLQDFRKRSFBPML-UHFFFAOYSA-N

>  <ref_mols>  (266) 
cx0312a,cx1213b

>  <tags>  (266) 
['butcher: adenine', 'fragmenstein', 'select (DF) [arg144_pures]', 'arg144_pures', 'raw', 'butcher: arginine']

>  <ref_pdb>  (266) 
cx0270a

>  <alias>  (266) 
cx0312a-cx1213b

>  <submitter_name>  (266) 
None

>  <HIPPO ID>  (266) 
2901

>  <original ID>  (266) 
cx0312a-cx1213b

>  <method>  (266) 
None

>  <ref_url>  (266) 
None

>  <submitter_email>  (266) 
None

>  <original SMILES>  (266) 
CNNCc1cccc(NCCCN(C)C)c1

$$$$
cx0353a-cx0289a
     RDKit          3D

 21 23  0  0  0  0  0  0  0  0999 V2000
   15.0544    9.0302    9.9749 C   0  0  0  0  0  0  0  0  0  0  0  0
   15.6246   10.3473   10.3594 N   0  0  2  0  0  4  0  0  0  0  0  0
   15.3473   11.1458    9.2862 O   0  0  0  0  0  1  0  0  0  0  0  0
   15.9959    7.5536   15.0762 N   0  0  0  0  0  0  0  0  0  0  0  0
   17.1133   10.2706   10.4503 N   0  0  0  0  0  0  0  0  0  0  0  0
   14.9615   10.9640   11.5986 C   0  0  0  0  0  0  0  0  0  0  0  0
   15.1046   10.4856   12.9321 C   0  0  0  0  0  0  0  0  0  0  0  0
   14.7859   11.4089   13.9635 C   0  0  0  0  0  0  0  0  0  0  0  0
   14.2984   12.6762   13.6657 C   0  0  0  0  0  0  0  0  0  0  0  0
   14.0991   12.9976   12.3506 C   0  0  0  0  0  0  0  0  0  0  0  0
   14.3807   12.1721   11.3472 N   0  0  0  0  0  0  0  0  0  0  0  0
   15.5405    9.2021   13.3517 C   0  0  0  0  0  0  0  0  0  0  0  0
   14.9886   11.0820   15.3058 C   0  0  0  0  0  0  0  0  0  0  0  0
   15.3811    9.8021   15.6720 C   0  0  0  0  0  0  0  0  0  0  0  0
   15.5726    8.8284   14.7021 C   0  0  0  0  0  0  0  0  0  0  0  0
   19.3127   10.9927   10.4651 N   0  0  0  0  0  0  0  0  0  0  0  0
   18.0382   11.2597   10.8318 C   0  0  0  0  0  0  0  0  0  0  0  0
   17.7804   12.3817   11.6040 C   0  0  0  0  0  0  0  0  0  0  0  0
   18.8174   13.2524   11.9619 C   0  0  0  0  0  0  0  0  0  0  0  0
   20.1134   12.9775   11.5626 C   0  0  0  0  0  0  0  0  0  0  0  0
   20.3127   11.8340   10.8235 C   0  0  0  0  0  0  0  0  0  0  0  0
  2  1  1  6
  2  3  1  0
  5  2  1  0
  6  2  1  0
  6 11  1  0
  6  7  2  0
  7 12  1  0
  7  8  1  0
  8  9  2  0
  8 13  1  0
  9 10  1  0
 10 11  2  0
 12 15  2  0
 13 14  2  0
 14 15  1  0
 16 21  2  0
 16 17  1  0
 17  5  1  0
 17 18  2  0
 18 19  1  0
 19 20  2  0
 20 21  1  0
  4 15  1  0
M  CHG  2   2   1   3  -1
M  END
>  <generation_date>  (267) 
None

>  <inchikey>  (267) 
GAWNBWKCEBKKAU-HXUWFJFHSA-N

>  <ref_mols>  (267) 
cx0289a,cx0353a

>  <tags>  (267) 
['butcher: adenine', 'fragmenstein', 'select (HA) [arg144_pures]', 'arg144_pures', 'raw', 'butcher: arginine']

>  <ref_pdb>  (267) 
cx0270a

>  <alias>  (267) 
cx0353a-cx0289a

>  <submitter_name>  (267) 
None

>  <HIPPO ID>  (267) 
2941

>  <original ID>  (267) 
cx0353a-cx0289a

>  <method>  (267) 
None

>  <ref_url>  (267) 
None

>  <submitter_email>  (267) 
None

>  <original SMILES>  (267) 
C[N@+]([O-])(Nc1ccccn1)c1nccc2ccc(N)cc12

$$$$
cx0394a-cx0692a
     RDKit          3D

 22 24  0  0  0  0  0  0  0  0999 V2000
   16.1282    6.7647   11.3549 F   0  0  0  0  0  0  0  0  0  0  0  0
   16.2717    8.0860   11.0817 C   0  0  2  0  0  0  0  0  0  0  0  0
   14.5645   11.4830   11.5503 C   0  0  0  0  0  0  0  0  0  0  0  0
   14.5200   12.7294   12.1023 N   0  0  0  0  0  0  0  0  0  0  0  0
   13.8497   11.3260   10.5623 O   0  0  0  0  0  0  0  0  0  0  0  0
   14.7743    9.9315   15.0352 C   0  0  0  0  0  0  0  0  0  0  0  0
   17.5720   12.9702   11.7643 O   0  0  0  0  0  0  0  0  0  0  0  0
   18.3482   12.1486   11.2692 C   0  0  0  0  0  0  0  0  0  0  0  0
   19.8391   12.4057   11.1625 C   0  0  0  0  0  0  0  0  0  0  0  0
   20.4771   11.3286   10.4910 O   0  0  0  0  0  0  0  0  0  0  0  0
   21.8859   11.5248   10.4590 C   0  0  0  0  0  0  0  0  0  0  0  0
   17.9307   10.9143   10.7797 N   0  0  0  0  0  0  0  0  0  0  0  0
   15.6165    8.9536   12.1266 C   0  0  2  0  0  0  0  0  0  0  0  0
   15.7311   10.5112   11.9312 C   0  0  2  0  0  0  0  0  0  0  0  0
   16.2449   10.9109   13.3237 C   0  0  0  0  0  0  0  0  0  0  0  0
   16.0059    9.8022   14.2638 N   0  0  0  0  0  0  0  0  0  0  0  0
   16.0316    8.6182   13.4868 N   0  0  0  0  0  0  0  0  0  0  0  0
   16.5153   10.7347   10.6146 C   0  0  2  0  0  0  0  0  0  0  0  0
   14.2358    8.5139   11.8663 C   0  0  0  0  0  0  0  0  0  0  0  0
   14.1012    8.3492   10.3485 C   0  0  0  0  0  0  0  0  0  0  0  0
   15.5128    8.4531    9.8569 C   0  0  1  0  0  0  0  0  0  0  0  0
   16.0489    9.8072    9.4479 C   0  0  0  0  0  0  0  0  0  0  0  0
  5  3  2  0
  4  3  1  0
  2  1  1  1
 11 10  1  0
 10  9  1  0
  9  8  1  0
  8  7  2  0
 12  8  1  0
 13 14  1  0
 13  2  1  0
 14 15  1  0
 15 16  1  0
 16  6  1  0
 16 17  1  0
 18 12  1  1
 18 22  1  0
 19 20  1  0
 21 20  1  1
 21 22  1  0
 14 18  1  0
 21  2  1  0
 14  3  1  6
 13 17  1  0
 13 19  1  1
M  END
>  <generation_date>  (268) 
None

>  <inchikey>  (268) 
GSFZRXHRTGDQNK-WYXGGORBSA-N

>  <ref_mols>  (268) 
cx0692a,cx0394a

>  <tags>  (268) 
['butcher: adenine', 'fragmenstein', 'select (DF) [arg144_pures]', 'arg144_pures', 'raw', 'butcher: arginine']

>  <ref_pdb>  (268) 
cx0270a

>  <alias>  (268) 
cx0394a-cx0692a

>  <submitter_name>  (268) 
None

>  <HIPPO ID>  (268) 
3026

>  <original ID>  (268) 
cx0394a-cx0692a

>  <method>  (268) 
None

>  <ref_url>  (268) 
None

>  <submitter_email>  (268) 
None

>  <original SMILES>  (268) 
COCC(=O)N[C@H]1C[C@@H]2CC[C@@]3(NN(C)C[C@@]13C(N)=O)[C@H]2F

$$$$
cx0394a-cx0935a
     RDKit          3D

 17 18  0  0  0  0  0  0  0  0999 V2000
   15.5146    8.9318   15.4140 C   0  0  0  0  0  0  0  0  0  0  0  0
   16.9362   12.6811   11.9705 O   0  0  0  0  0  0  0  0  0  0  0  0
   17.7735   12.0144   11.3758 C   0  0  0  0  0  0  0  0  0  0  0  0
   19.2394   12.4695   11.2266 C   0  0  0  0  0  0  0  0  0  0  0  0
   20.0015   11.4734   10.5380 O   0  0  0  0  0  0  0  0  0  0  0  0
   21.4039   11.7056   10.6364 C   0  0  0  0  0  0  0  0  0  0  0  0
   17.5531   10.7841   10.8244 N   0  0  0  0  0  0  0  0  0  0  0  0
   14.9967    6.6658   10.7424 O   0  0  0  0  0  0  0  0  0  0  0  0
   14.8892    8.5990   12.1425 C   0  0  0  0  0  0  0  0  0  0  0  0
   15.7451    9.6226   12.0956 C   0  0  0  0  0  0  0  0  0  0  0  0
   15.7143   10.3246   13.4026 C   0  0  0  0  0  0  0  0  0  0  0  0
   14.8145    9.4814   14.2599 N   0  0  0  0  0  0  0  0  0  0  0  0
   14.3561    8.4329   13.4033 N   0  0  0  0  0  0  0  0  0  0  0  0
   16.3992    9.9300   10.8055 C   0  0  1  0  0  0  0  0  0  0  0  0
   14.3726    7.9284   10.8987 C   0  0  1  0  0  0  0  0  0  0  0  0
   14.5263    8.7993    9.6147 C   0  0  0  0  0  0  0  0  0  0  0  0
   15.2981   10.1356    9.7793 C   0  0  0  0  0  0  0  0  0  0  0  0
  6  5  1  0
  5  4  1  0
  4  3  1  0
  3  2  2  0
  7  3  1  0
  9 10  2  0
  9 13  1  0
 10 11  1  0
 11 12  1  0
 12  1  1  0
 12 13  1  0
 14  7  1  1
 14 17  1  0
 15 16  1  0
 15  8  1  6
 16 17  1  0
  9 15  1  0
 10 14  1  0
M  END
>  <generation_date>  (269) 
None

>  <inchikey>  (269) 
ZFGFROZJWWXVOM-RKDXNWHRSA-N

>  <ref_mols>  (269) 
cx0935a,cx0394a

>  <tags>  (269) 
['butcher: adenine', 'fragmenstein', 'select (DF) [arg144_pures]', 'arg144_pures', 'raw', 'butcher: arginine']

>  <ref_pdb>  (269) 
cx0270a

>  <alias>  (269) 
cx0394a-cx0935a

>  <submitter_name>  (269) 
None

>  <HIPPO ID>  (269) 
3038

>  <original ID>  (269) 
cx0394a-cx0935a

>  <method>  (269) 
None

>  <ref_url>  (269) 
None

>  <submitter_email>  (269) 
None

>  <original SMILES>  (269) 
COCC(=O)N[C@@H]1CC[C@@H](O)C2=C1CN(C)N2

$$$$
cx0399a-cx0289a
     RDKit          3D

 25 27  0  0  0  0  0  0  0  0999 V2000
   14.3790   12.1619   10.4073 O   0  0  0  0  0  0  0  0  0  0  0  0
   14.8967   11.3028   11.1193 C   0  0  0  0  0  0  0  0  0  0  0  0
   15.7676   10.1784   10.5775 C   0  0  1  0  0  0  0  0  0  0  0  0
   15.1177    9.6033    9.3211 C   0  0  0  0  0  0  0  0  0  0  0  0
   17.1469   10.5836   10.2422 N   0  0  0  0  0  0  0  0  0  0  0  0
   14.3966    7.5236   14.9354 N   0  0  0  0  0  0  0  0  0  0  0  0
   14.7100   11.2177   12.6321 C   0  0  2  0  0  0  0  0  0  0  0  0
   14.9302   12.5297   13.3472 C   0  0  0  0  0  0  0  0  0  0  0  0
   15.2302   12.8971   14.6619 C   0  0  0  0  0  0  0  0  0  0  0  0
   15.3576   12.1616   15.9597 C   0  0  0  0  0  0  0  0  0  0  0  0
   15.1839   10.6682   15.9959 C   0  0  0  0  0  0  0  0  0  0  0  0
   15.7219   10.1279   12.9653 C   0  0  0  0  0  0  0  0  0  0  0  0
   14.7541   13.7147   12.6438 N   0  0  0  0  0  0  0  0  0  0  0  0
   15.1592   14.7764   13.3960 C   0  0  0  0  0  0  0  0  0  0  0  0
   15.4182   14.3152   14.6538 C   0  0  0  0  0  0  0  0  0  0  0  0
   19.3709   11.0169   10.4537 N   0  0  0  0  0  0  0  0  0  0  0  0
   18.1156   11.3665   10.7948 C   0  0  0  0  0  0  0  0  0  0  0  0
   17.9175   12.4824   11.5818 C   0  0  0  0  0  0  0  0  0  0  0  0
   18.9973   13.2621   12.0072 C   0  0  0  0  0  0  0  0  0  0  0  0
   20.2813   12.9029   11.6404 C   0  0  0  0  0  0  0  0  0  0  0  0
   20.4187   11.7709   10.8687 C   0  0  0  0  0  0  0  0  0  0  0  0
   14.8804    7.9951   11.8503 C   0  0  0  0  0  0  0  0  0  0  0  0
   15.8209    9.1979   11.7557 C   0  0  1  0  0  0  0  0  0  0  0  0
   15.6124    7.1226   14.2376 C   0  0  0  0  0  0  0  0  0  0  0  0
   15.3896    6.8482   12.7470 C   0  0  0  0  0  0  0  0  0  0  0  0
  3  4  1  6
  3  2  1  0
  2  1  2  0
  3  5  1  0
  7  2  1  0
  7 12  1  0
  7  8  1  1
  8 13  1  0
  8  9  2  0
  9 10  1  0
  9 15  1  0
 10 11  1  0
 13 14  1  0
 14 15  2  0
 16 21  2  0
 16 17  1  0
 17  5  1  0
 17 18  2  0
 18 19  1  0
 19 20  2  0
 20 21  1  0
 22 25  1  0
 23 22  1  6
 24  6  1  0
 24 25  1  0
 12 23  1  0
  3 23  1  0
M  END
>  <generation_date>  (270) 
None

>  <inchikey>  (270) 
IUYJGMKGEWUZKR-GUXCAODWSA-N

>  <ref_mols>  (270) 
cx0289a,cx0399a

>  <tags>  (270) 
['butcher: adenine', 'fragmenstein', 'select (HA) [arg144_pures]', 'select (DF) [arg144_pures]', 'arg144_pures', 'raw', 'butcher: arginine']

>  <ref_pdb>  (270) 
cx0270a

>  <alias>  (270) 
cx0399a-cx0289a

>  <submitter_name>  (270) 
None

>  <HIPPO ID>  (270) 
3088

>  <original ID>  (270) 
cx0399a-cx0289a

>  <method>  (270) 
None

>  <ref_url>  (270) 
None

>  <submitter_email>  (270) 
None

>  <original SMILES>  (270) 
CCc1cc[nH]c1[C@@H]1C[C@@H](CCCN)[C@](C)(Nc2ccccn2)C1=O

$$$$
cx0399b-cx0270a
     RDKit          3D

 18 19  0  0  0  0  0  0  0  0999 V2000
   21.9560   15.7161   12.2642 O   0  0  0  0  0  0  0  0  0  0  0  0
   22.2367   14.5354   12.4387 C   0  0  0  0  0  0  0  0  0  0  0  0
   23.3414   14.1058   13.1429 N   0  0  0  0  0  0  0  0  0  0  0  0
   24.3645   15.0068   13.6157 C   0  0  0  0  0  0  0  0  0  0  0  0
   15.9283   11.2543   12.3498 O   0  0  0  0  0  0  0  0  0  0  0  0
   16.8432   11.3382   11.5328 C   0  0  0  0  0  0  0  0  0  0  0  0
   16.8869   10.5336   10.4152 N   0  0  0  0  0  0  0  0  0  0  0  0
   15.7901    9.6483   10.1079 C   0  0  0  0  0  0  0  0  0  0  0  0
   19.2264   15.2943   13.3200 C   0  0  0  0  0  0  0  0  0  0  0  0
   21.4287   13.4558   11.8166 C   0  0  0  0  0  0  0  0  0  0  0  0
   20.0154   13.3352   11.9192 C   0  0  0  0  0  0  0  0  0  0  0  0
   19.3310   12.2621   11.3031 C   0  0  0  0  0  0  0  0  0  0  0  0
   20.0870   11.3428   10.5455 C   0  0  0  0  0  0  0  0  0  0  0  0
   21.4710   11.4681   10.4275 C   0  0  0  0  0  0  0  0  0  0  0  0
   22.1303   12.5103   11.0503 C   0  0  0  0  0  0  0  0  0  0  0  0
   19.0430   14.0674   12.5744 N   0  0  0  0  0  0  0  0  0  0  0  0
   17.8235   13.4456   12.4717 C   0  0  0  0  0  0  0  0  0  0  0  0
   17.9467   12.3001   11.7078 C   0  0  0  0  0  0  0  0  0  0  0  0
  4  3  1  0
  3  2  1  0
  2  1  2  0
  8  7  1  0
  7  6  1  0
  6  5  2  0
 10  2  1  0
 10 15  2  0
 10 11  1  0
 11 16  1  0
 11 12  2  0
 12 13  1  0
 12 18  1  0
 13 14  2  0
 14 15  1  0
 16 17  1  0
 17 18  2  0
  6 18  1  0
  9 16  1  0
M  END
>  <generation_date>  (271) 
None

>  <inchikey>  (271) 
UQJZJBUURJWCJN-UHFFFAOYSA-N

>  <ref_mols>  (271) 
cx0399b,cx0270a

>  <tags>  (271) 
['butcher: adenine', 'fragmenstein', 'select (DF) [arg144_pures]', 'arg144_pures', 'select (JA) [arg144_pures]', 'raw', 'butcher: arginine']

>  <ref_pdb>  (271) 
cx0270a

>  <alias>  (271) 
cx0399b-cx0270a

>  <submitter_name>  (271) 
None

>  <HIPPO ID>  (271) 
3145

>  <original ID>  (271) 
cx0399b-cx0270a

>  <method>  (271) 
None

>  <ref_url>  (271) 
None

>  <submitter_email>  (271) 
None

>  <original SMILES>  (271) 
CNC(=O)c1cn(C)c2c(C(=O)NC)cccc12

$$$$
cx0399f-cx0270a
     RDKit          3D

 20 21  0  0  0  0  0  0  0  0999 V2000
   23.4648   15.1980   12.7594 O   0  0  0  0  0  0  0  0  0  0  0  0
   22.2746   14.9030   12.6938 C   0  0  0  0  0  0  0  0  0  0  0  0
   21.3257   15.6343   13.3555 N   0  0  0  0  0  0  0  0  0  0  0  0
   21.6798   16.5454   14.4077 C   0  0  0  0  0  0  0  0  0  0  0  0
   15.7042   10.6355   12.3155 O   0  0  0  0  0  0  0  0  0  0  0  0
   16.4529   10.8497   11.3669 C   0  0  0  0  0  0  0  0  0  0  0  0
   16.3163   10.2506   10.1379 N   0  0  0  0  0  0  0  0  0  0  0  0
   15.2526    9.3208    9.8686 C   0  0  0  0  0  0  0  0  0  0  0  0
   17.5740   15.1095   13.2845 C   0  0  0  0  0  0  0  0  0  0  0  0
   21.7759   13.7524   11.8689 C   0  0  0  0  0  0  0  0  0  0  0  0
   20.3187   13.3217   11.7955 C   0  0  0  0  0  0  0  0  0  0  0  0
   20.0749   12.0611   11.0021 C   0  0  0  0  0  0  0  0  0  0  0  0
   21.2043   11.4305   10.3317 C   0  0  0  0  0  0  0  0  0  0  0  0
   22.4379   11.9363   10.3790 C   0  0  0  0  0  0  0  0  0  0  0  0
   22.7213   13.0942   11.1737 C   0  0  0  0  0  0  0  0  0  0  0  0
   19.4788   14.1066   12.4002 N   0  0  0  0  0  0  0  0  0  0  0  0
   18.8760   11.4713   10.8778 C   0  0  0  0  0  0  0  0  0  0  0  0
   17.6079   11.8070   11.4767 C   0  0  0  0  0  0  0  0  0  0  0  0
   17.3509   12.9124   12.1848 C   0  0  0  0  0  0  0  0  0  0  0  0
   18.1398   13.9942   12.5075 N   0  0  0  0  0  0  0  0  0  0  0  0
  4  3  1  0
  3  2  1  0
  2  1  2  0
  8  7  1  0
  7  6  1  0
  6  5  2  0
 10  2  1  0
 10 15  2  0
 10 11  1  0
 11 16  2  0
 11 12  1  0
 12 13  1  0
 12 17  2  0
 13 14  2  0
 14 15  1  0
 18  6  1  0
 18 19  2  0
 19 20  1  0
 20  9  1  0
 17 18  1  0
 16 20  1  0
M  END
>  <generation_date>  (272) 
None

>  <inchikey>  (272) 
GFWMDXMIJPXVBE-UHFFFAOYSA-N

>  <ref_mols>  (272) 
cx0270a,cx0399f

>  <tags>  (272) 
['butcher: adenine', 'fragmenstein', 'select (HA) [arg144_pures]', 'select (DF) [arg144_pures]', 'arg144_pures', 'raw', 'butcher: arginine']

>  <ref_pdb>  (272) 
cx0270a

>  <alias>  (272) 
cx0399f-cx0270a

>  <submitter_name>  (272) 
None

>  <HIPPO ID>  (272) 
3269

>  <original ID>  (272) 
cx0399f-cx0270a

>  <method>  (272) 
None

>  <ref_url>  (272) 
None

>  <submitter_email>  (272) 
None

>  <original SMILES>  (272) 
CNC(=O)C1=CN(C)N=c2c(C(=O)NC)cccc2=C1

$$$$
cx0399f-cx0894b
     RDKit          3D

 14 15  0  0  0  0  0  0  0  0999 V2000
   23.5346   14.9805   13.0073 O   0  0  0  0  0  0  0  0  0  0  0  0
   22.3704   14.8509   12.6545 C   0  0  0  0  0  0  0  0  0  0  0  0
   21.3934   15.7789   12.9664 N   0  0  0  0  0  0  0  0  0  0  0  0
   21.6780   16.8351   13.9032 C   0  0  0  0  0  0  0  0  0  0  0  0
   16.9272   13.3661   12.6951 Cl  0  0  0  0  0  0  0  0  0  0  0  0
   21.9512   13.7115   11.8079 C   0  0  0  0  0  0  0  0  0  0  0  0
   20.6261   13.2458   11.7742 C   0  0  0  0  0  0  0  0  0  0  0  0
   20.2361   12.1487   11.0005 C   0  0  0  0  0  0  0  0  0  0  0  0
   21.2255   11.4483   10.2886 C   0  0  0  0  0  0  0  0  0  0  0  0
   22.5449   11.9120   10.2897 C   0  0  0  0  0  0  0  0  0  0  0  0
   22.9025   13.0287   11.0385 C   0  0  0  0  0  0  0  0  0  0  0  0
   19.5091   13.6470   12.4716 N   0  0  0  0  0  0  0  0  0  0  0  0
   18.4277   12.9597   12.0315 C   0  0  0  0  0  0  0  0  0  0  0  0
   18.8232   12.0076   11.1350 C   0  0  0  0  0  0  0  0  0  0  0  0
  4  3  1  0
  3  2  1  0
  2  1  2  0
  6  2  1  0
  6 11  2  0
  6  7  1  0
  7 12  1  0
  7  8  2  0
  8  9  1  0
  8 14  1  0
  9 10  2  0
 10 11  1  0
 12 13  1  0
 13 14  2  0
  5 13  1  0
M  END
>  <generation_date>  (273) 
None

>  <inchikey>  (273) 
RZIGAYKJCIITOG-UHFFFAOYSA-N

>  <ref_mols>  (273) 
cx0894b,cx0399f

>  <tags>  (273) 
['butcher: adenine', 'fragmenstein', 'select (HA) [arg144_pures]', 'arg144_pures', 'raw', 'butcher: arginine']

>  <ref_pdb>  (273) 
cx0270a

>  <alias>  (273) 
cx0399f-cx0894b

>  <submitter_name>  (273) 
None

>  <HIPPO ID>  (273) 
3291

>  <original ID>  (273) 
cx0399f-cx0894b

>  <method>  (273) 
None

>  <ref_url>  (273) 
None

>  <submitter_email>  (273) 
None

>  <original SMILES>  (273) 
CNC(=O)c1cccc2cc(Cl)[nH]c12

$$$$
cx0399f-cx0935a
     RDKit          3D

 24 26  0  0  0  0  0  0  0  0999 V2000
   23.3750   15.4893   13.2700 O   0  0  0  0  0  0  0  0  0  0  0  0
   22.2922   15.0869   12.8619 C   0  0  0  0  0  0  0  0  0  0  0  0
   21.1040   15.7078   13.1788 N   0  0  0  0  0  0  0  0  0  0  0  0
   21.1005   16.7767   14.1433 C   0  0  0  0  0  0  0  0  0  0  0  0
   17.0707   12.4192   12.7941 O   0  0  0  0  0  0  0  0  0  0  0  0
   17.6161   12.0166   11.7745 C   0  0  0  0  0  0  0  0  0  0  0  0
   19.4185   10.6605    9.8625 O   0  0  0  0  0  0  0  0  0  0  0  0
   17.0413   11.2044   10.8209 N   0  0  0  0  0  0  0  0  0  0  0  0
   13.6251    6.8877   11.2530 O   0  0  0  0  0  0  0  0  0  0  0  0
   22.2382   13.9671   11.9056 C   0  0  0  0  0  0  0  0  0  0  0  0
   21.0823   13.2237   11.6210 C   0  0  0  0  0  0  0  0  0  0  0  0
   21.1285   12.1862   10.6915 C   0  0  0  0  0  0  0  0  0  0  0  0
   22.3296   11.8586   10.0442 C   0  0  0  0  0  0  0  0  0  0  0  0
   23.4775   12.5815   10.3204 C   0  0  0  0  0  0  0  0  0  0  0  0
   23.4311   13.6121   11.2443 C   0  0  0  0  0  0  0  0  0  0  0  0
   19.7970   13.2375   12.1431 N   0  0  0  0  0  0  0  0  0  0  0  0
   18.9956   12.3329   11.4789 C   0  0  0  0  0  0  0  0  0  0  0  0
   19.8355   11.6724   10.6214 C   0  0  0  0  0  0  0  0  0  0  0  0
   16.0689   10.2137   10.9846 C   0  0  0  0  0  0  0  0  0  0  0  0
   15.6216    9.7794   12.2280 C   0  0  0  0  0  0  0  0  0  0  0  0
   14.8387    8.6274   12.3061 C   0  0  0  0  0  0  0  0  0  0  0  0
   14.4402    7.9746   11.1423 C   0  0  0  0  0  0  0  0  0  0  0  0
   14.8137    8.4490    9.8972 C   0  0  0  0  0  0  0  0  0  0  0  0
   15.6561    9.5498    9.8224 C   0  0  0  0  0  0  0  0  0  0  0  0
  4  3  1  0
  3  2  1  0
  2  1  2  0
  6  5  2  0
  8  6  1  0
 10  2  1  0
 10 15  2  0
 10 11  1  0
 11 16  1  0
 11 12  2  0
 12 13  1  0
 12 18  1  0
 13 14  2  0
 14 15  1  0
 16 17  1  0
 17 18  2  0
 19  8  1  0
 19 24  1  0
 19 20  2  0
 20 21  1  0
 21 22  2  0
 22 23  1  0
 22  9  1  0
 23 24  2  0
 18  7  1  0
  6 17  1  0
M  END
>  <generation_date>  (274) 
None

>  <inchikey>  (274) 
GRWVSZRVTJQSLK-UHFFFAOYSA-N

>  <ref_mols>  (274) 
cx0935a,cx0399f

>  <tags>  (274) 
['butcher: adenine', 'fragmenstein', 'select (DF) [arg144_pures]', 'arg144_pures', 'raw', 'butcher: arginine']

>  <ref_pdb>  (274) 
cx0270a

>  <alias>  (274) 
cx0399f-cx0935a

>  <submitter_name>  (274) 
None

>  <HIPPO ID>  (274) 
3293

>  <original ID>  (274) 
cx0399f-cx0935a

>  <method>  (274) 
None

>  <ref_url>  (274) 
None

>  <submitter_email>  (274) 
None

>  <original SMILES>  (274) 
CNC(=O)c1cccc2c(O)c(C(=O)Nc3ccc(O)cc3)[nH]c12

$$$$
cx0404a-cx0692a
     RDKit          3D

 22 23  0  0  0  0  0  0  0  0999 V2000
   13.7821   11.9473   10.7904 O   0  0  0  0  0  0  0  0  0  0  0  0
   14.2436   12.3678   11.8472 C   0  0  0  0  0  0  0  0  0  0  0  0
   14.3613   13.6979   12.0771 N   0  0  0  0  0  0  0  0  0  0  0  0
   16.3918    8.6165   14.6626 C   0  0  0  0  0  0  0  0  0  0  0  0
   15.4167    7.5649   14.6539 O   0  0  0  0  0  0  0  0  0  0  0  0
   16.0096    6.2905   14.8502 C   0  0  0  0  0  0  0  0  0  0  0  0
   17.2014   13.2577   11.7753 O   0  0  0  0  0  0  0  0  0  0  0  0
   18.0163   12.3556   11.6253 C   0  0  0  0  0  0  0  0  0  0  0  0
   19.5080   12.6137   11.3939 C   0  0  0  0  0  0  0  0  0  0  0  0
   20.0882   11.4620   10.7678 O   0  0  0  0  0  0  0  0  0  0  0  0
   21.5036   11.5866   10.6623 C   0  0  0  0  0  0  0  0  0  0  0  0
   17.7220   11.0047   11.6411 N   0  0  0  0  0  0  0  0  0  0  0  0
   14.6868   11.4767   13.0093 C   0  0  1  0  0  0  0  0  0  0  0  0
   15.4553   10.1568   12.6604 C   0  0  2  0  0  0  0  0  0  0  0  0
   15.7776    9.9118   14.1553 C   0  0  2  0  0  0  0  0  0  0  0  0
   16.3541   11.1239   14.6204 O   0  0  0  0  0  0  0  0  0  0  0  0
   15.5858   12.1894   13.9657 N   0  0  0  0  0  0  0  0  0  0  0  0
   16.3922   10.4935   11.4097 C   0  0  2  0  0  0  0  0  0  0  0  0
   14.5095    9.0474   12.2621 C   0  0  0  0  0  0  0  0  0  0  0  0
   14.8702    7.9580   11.2868 C   0  0  0  0  0  0  0  0  0  0  0  0
   15.2520    8.6472   10.0017 C   0  0  0  0  0  0  0  0  0  0  0  0
   16.5022    9.4234   10.3096 C   0  0  0  0  0  0  0  0  0  0  0  0
  6  5  1  0
  5  4  1  0
  2  1  2  0
  3  2  1  0
 11 10  1  0
 10  9  1  0
  9  8  1  0
  8  7  2  0
 12  8  1  0
 14 13  1  0
 13 17  1  0
 13  2  1  6
 14 15  1  0
 15  4  1  6
 15 16  1  0
 16 17  1  0
 18 12  1  1
 18 22  1  0
 19 20  1  0
 20 21  1  0
 21 22  1  0
 14 18  1  0
 14 19  1  6
M  END
>  <generation_date>  (275) 
None

>  <inchikey>  (275) 
DKLDCPPECLCIJZ-QPPBUOOMSA-N

>  <ref_mols>  (275) 
cx0692a,cx0404a

>  <tags>  (275) 
['butcher: adenine', 'fragmenstein', 'select (DF) [arg144_pures]', 'arg144_pures', 'raw', 'butcher: arginine']

>  <ref_pdb>  (275) 
cx0270a

>  <alias>  (275) 
cx0404a-cx0692a

>  <submitter_name>  (275) 
None

>  <HIPPO ID>  (275) 
3345

>  <original ID>  (275) 
cx0404a-cx0692a

>  <method>  (275) 
None

>  <ref_url>  (275) 
None

>  <submitter_email>  (275) 
None

>  <original SMILES>  (275) 
COCC(=O)N[C@H]1CCCC[C@@]12[C@@H](COC)ON[C@H]2C(N)=O

$$$$
cx0406a-cx0935a
     RDKit          3D

 20 21  0  0  0  0  0  0  0  0999 V2000
   11.1264    6.5755   13.3493 O   0  0  0  0  0  0  0  0  0  0  0  0
   11.8543    5.7513   12.4432 C   0  0  0  0  0  0  0  0  0  0  0  0
   14.3927    7.4517   11.4743 N   0  0  0  0  0  0  0  0  0  0  0  0
   14.7861   12.1408   12.4478 C   0  0  0  0  0  0  0  0  0  0  0  0
   17.4643   12.8356   12.2892 O   0  0  0  0  0  0  0  0  0  0  0  0
   18.0331   12.1798   11.4204 C   0  0  0  0  0  0  0  0  0  0  0  0
   19.5129   12.4264   11.1310 C   0  0  0  0  0  0  0  0  0  0  0  0
   20.1180   11.3298   10.4604 O   0  0  0  0  0  0  0  0  0  0  0  0
   21.5411   11.4368   10.4985 C   0  0  0  0  0  0  0  0  0  0  0  0
   17.4615   11.1960   10.6416 N   0  0  0  0  0  0  0  0  0  0  0  0
   13.3330    5.6503   12.8160 C   0  0  2  0  0  0  0  0  0  0  0  0
   13.5600    5.1662   14.2496 C   0  0  0  0  0  0  0  0  0  0  0  0
   14.9754    5.5996   14.6181 C   0  0  0  0  0  0  0  0  0  0  0  0
   15.3928    6.6135   13.5603 C   0  0  0  0  0  0  0  0  0  0  0  0
   14.1002    6.9756   12.8207 C   0  0  1  0  0  0  0  0  0  0  0  0
   15.9453    9.1591   10.1121 S   0  0  0  0  0  0  0  0  0  0  0  0
   16.2540   10.6153   10.9418 C   0  0  0  0  0  0  0  0  0  0  0  0
   15.2053   10.8759   11.7950 C   0  0  0  0  0  0  0  0  0  0  0  0
   14.5318    9.7172   12.1481 N   0  0  0  0  0  0  0  0  0  0  0  0
   14.8511    8.7220   11.3541 C   0  0  0  0  0  0  0  0  0  0  0  0
  2  1  1  0
  9  8  1  0
  8  7  1  0
  7  6  1  0
  6  5  2  0
 10  6  1  0
 11 12  1  0
 11 15  1  0
 11  2  1  1
 12 13  1  0
 13 14  1  0
 14 15  1  0
 15  3  1  6
 16 17  1  0
 16 20  1  0
 17 18  2  0
 18  4  1  0
 18 19  1  0
 19 20  2  0
 20  3  1  0
 10 17  1  0
M  END
>  <generation_date>  (276) 
None

>  <inchikey>  (276) 
KXSLGBIXQCYSPW-VHSXEESVSA-N

>  <ref_mols>  (276) 
cx0935a,cx0406a

>  <tags>  (276) 
['butcher: adenine', 'butcher: phosphate', 'fragmenstein', 'select (DF) [arg144_pures]', 'arg144_pures', 'raw', 'butcher: arginine']

>  <ref_pdb>  (276) 
cx0270a

>  <alias>  (276) 
cx0406a-cx0935a

>  <submitter_name>  (276) 
None

>  <HIPPO ID>  (276) 
3420

>  <original ID>  (276) 
cx0406a-cx0935a

>  <method>  (276) 
None

>  <ref_url>  (276) 
None

>  <submitter_email>  (276) 
None

>  <original SMILES>  (276) 
COCC(=O)Nc1sc(N[C@@H]2CCC[C@H]2CO)nc1C

$$$$
cx0692a-cx0353a
     RDKit          3D

 21 23  0  0  0  0  0  0  0  0999 V2000
   17.2729   13.0436   11.9107 O   0  0  0  0  0  0  0  0  0  0  0  0
   18.0459   12.1775   11.5195 C   0  0  0  0  0  0  0  0  0  0  0  0
   19.5403   12.4500   11.3398 C   0  0  0  0  0  0  0  0  0  0  0  0
   20.1602   11.3538   10.6657 O   0  0  0  0  0  0  0  0  0  0  0  0
   21.5745   11.5171   10.6143 C   0  0  0  0  0  0  0  0  0  0  0  0
   17.6788   10.8930   11.1688 N   0  0  0  0  0  0  0  0  0  0  0  0
   16.3190   10.5769   10.7859 C   0  0  2  0  0  0  0  0  0  0  0  0
   15.2181   10.3075   11.9092 C   0  0  1  0  0  0  0  0  0  0  0  0
   14.7880    8.7781   11.7697 C   0  0  0  0  0  0  0  0  0  0  0  0
   14.3526    8.2556   10.3966 C   0  0  0  0  0  0  0  0  0  0  0  0
   14.9579    9.0710    9.2913 C   0  0  0  0  0  0  0  0  0  0  0  0
   16.3409    9.4584    9.7414 C   0  0  0  0  0  0  0  0  0  0  0  0
   15.5336   10.5198   13.4087 C   0  0  0  0  0  0  0  0  0  0  0  0
   15.1366   11.6970   14.0788 C   0  0  0  0  0  0  0  0  0  0  0  0
   14.4275   12.8208   13.3720 C   0  0  0  0  0  0  0  0  0  0  0  0
   14.2255   12.5833   11.8888 C   0  0  0  0  0  0  0  0  0  0  0  0
   14.0595   11.1717   11.5556 N   0  0  0  0  0  0  0  0  0  0  0  0
   16.0595    9.4862   14.2110 C   0  0  0  0  0  0  0  0  0  0  0  0
   15.2913   11.8206   15.4716 C   0  0  0  0  0  0  0  0  0  0  0  0
   15.7890   10.7704   16.2299 C   0  0  0  0  0  0  0  0  0  0  0  0
   16.1593    9.5958   15.6000 C   0  0  0  0  0  0  0  0  0  0  0  0
  5  4  1  0
  4  3  1  0
  3  2  1  0
  2  1  2  0
  6  2  1  0
  7  6  1  1
  7 12  1  0
  7  8  1  0
  8  9  1  1
  9 10  1  0
 10 11  1  0
 11 12  1  0
 13 18  2  0
 13 14  1  0
 14 15  1  0
 14 19  2  0
 15 16  1  0
 16 17  1  0
 18 21  1  0
 19 20  1  0
 20 21  2  0
  8 17  1  0
  8 13  1  0
M  END
>  <generation_date>  (277) 
None

>  <inchikey>  (277) 
YJPQHYJPQLYRNW-DOTOQJQBSA-N

>  <ref_mols>  (277) 
cx0692a,cx0353a

>  <tags>  (277) 
['butcher: adenine', 'fragmenstein', 'select (DF) [arg144_pures]', 'arg144_pures', 'select (JA) [arg144_pures]', 'raw', 'butcher: arginine']

>  <ref_pdb>  (277) 
cx0270a

>  <alias>  (277) 
cx0692a-cx0353a

>  <submitter_name>  (277) 
None

>  <HIPPO ID>  (277) 
3684

>  <original ID>  (277) 
cx0692a-cx0353a

>  <method>  (277) 
None

>  <ref_url>  (277) 
None

>  <submitter_email>  (277) 
None

>  <original SMILES>  (277) 
COCC(=O)N[C@H]1CCCC[C@]12NCCc1ccccc12

$$$$
cx0692a-cx0399b
     RDKit          3D

 22 24  0  0  0  0  0  0  0  0999 V2000
   16.3484   12.0648   12.7045 O   0  0  0  0  0  0  0  0  0  0  0  0
   17.1730   11.9229   11.8064 C   0  0  0  0  0  0  0  0  0  0  0  0
   17.0396   11.0087   10.7822 N   0  0  0  0  0  0  0  0  0  0  0  0
   16.0681    9.9875   10.7811 C   0  0  0  0  0  0  0  0  0  0  0  0
   15.6384    9.3718   11.9605 C   0  0  0  0  0  0  0  0  0  0  0  0
   14.7874    8.2690   11.9111 C   0  0  0  0  0  0  0  0  0  0  0  0
   14.2951    7.8269   10.6881 C   0  0  0  0  0  0  0  0  0  0  0  0
   14.6458    8.4972    9.5234 C   0  0  0  0  0  0  0  0  0  0  0  0
   15.5708    9.5376    9.5623 C   0  0  0  0  0  0  0  0  0  0  0  0
   22.2787   15.6713   12.5309 O   0  0  0  0  0  0  0  0  0  0  0  0
   22.7217   14.5283   12.4420 C   0  0  0  0  0  0  0  0  0  0  0  0
   23.9426   14.1323   12.9346 N   0  0  0  0  0  0  0  0  0  0  0  0
   24.8033   15.0421   13.6462 C   0  0  0  0  0  0  0  0  0  0  0  0
   21.9177   13.4770   11.7795 C   0  0  0  0  0  0  0  0  0  0  0  0
   20.5186   13.4963   11.8861 C   0  0  0  0  0  0  0  0  0  0  0  0
   19.6993   12.5018   11.3468 C   0  0  0  0  0  0  0  0  0  0  0  0
   20.3199   11.4684   10.6187 C   0  0  0  0  0  0  0  0  0  0  0  0
   21.7112   11.4650   10.4583 C   0  0  0  0  0  0  0  0  0  0  0  0
   22.5026   12.4509   11.0332 C   0  0  0  0  0  0  0  0  0  0  0  0
   19.7060   14.3962   12.5334 N   0  0  0  0  0  0  0  0  0  0  0  0
   18.4184   13.9537   12.5123 C   0  0  0  0  0  0  0  0  0  0  0  0
   18.3688   12.7561   11.8140 C   0  0  0  0  0  0  0  0  0  0  0  0
  2  1  2  0
  3  2  1  0
  4  3  1  0
  4  9  1  0
  4  5  2  0
  5  6  1  0
  6  7  2  0
  7  8  1  0
  8  9  2  0
 13 12  1  0
 12 11  1  0
 11 10  2  0
 14 11  1  0
 14 19  2  0
 14 15  1  0
 15 20  1  0
 15 16  2  0
 16 17  1  0
 16 22  1  0
 17 18  2  0
 18 19  1  0
 20 21  1  0
 21 22  2  0
  2 22  1  0
M  END
>  <generation_date>  (278) 
None

>  <inchikey>  (278) 
RTRFWLCSCBITKB-UHFFFAOYSA-N

>  <ref_mols>  (278) 
cx0692a,cx0399b

>  <tags>  (278) 
['butcher: adenine', 'fragmenstein', 'select (DF) [arg144_pures]', 'arg144_pures', 'raw', 'butcher: arginine']

>  <ref_pdb>  (278) 
cx0270a

>  <alias>  (278) 
cx0692a-cx0399b

>  <submitter_name>  (278) 
None

>  <HIPPO ID>  (278) 
3686

>  <original ID>  (278) 
cx0692a-cx0399b

>  <method>  (278) 
None

>  <ref_url>  (278) 
None

>  <submitter_email>  (278) 
None

>  <original SMILES>  (278) 
CNC(=O)c1cccc2c(C(=O)Nc3ccccc3)c[nH]c12

$$$$
cx0692a-cx0864b
     RDKit          3D

 24 27  0  0  0  0  0  0  0  0999 V2000
   16.6782   12.0196   12.8244 O   0  0  0  0  0  0  0  0  0  0  0  0
   17.3074   11.8618   11.7843 C   0  0  0  0  0  0  0  0  0  0  0  0
   16.8706   11.0718   10.7418 N   0  0  0  0  0  0  0  0  0  0  0  0
   15.9264   10.0342   10.8231 C   0  0  0  0  0  0  0  0  0  0  0  0
   15.5428    9.4485   12.0296 C   0  0  0  0  0  0  0  0  0  0  0  0
   14.7619    8.2933   12.0272 C   0  0  0  0  0  0  0  0  0  0  0  0
   14.2896    7.7713   10.8261 C   0  0  0  0  0  0  0  0  0  0  0  0
   14.5887    8.4131    9.6312 C   0  0  0  0  0  0  0  0  0  0  0  0
   15.4444    9.5103    9.6243 C   0  0  0  0  0  0  0  0  0  0  0  0
   19.3230   10.7795   10.1238 O   0  0  0  0  0  0  0  0  0  0  0  0
   17.1791   16.0124   14.6456 C   0  0  0  0  0  0  0  0  0  0  0  0
   18.4089   15.5089   14.1929 C   0  0  0  0  0  0  0  0  0  0  0  0
   18.1109   14.5455   13.2361 C   0  0  0  0  0  0  0  0  0  0  0  0
   16.7321   14.5162   13.2400 N   0  0  0  0  0  0  0  0  0  0  0  0
   16.1519   15.4296   14.0373 N   0  0  0  0  0  0  0  0  0  0  0  0
   18.6318   12.5430   11.6452 C   0  0  0  0  0  0  0  0  0  0  0  0
   19.0111   13.7000   12.4046 C   0  0  0  0  0  0  0  0  0  0  0  0
   20.3793   14.0894   12.3752 C   0  0  0  0  0  0  0  0  0  0  0  0
   21.2989   13.3514   11.6584 C   0  0  0  0  0  0  0  0  0  0  0  0
   20.9151   12.2696   10.9332 C   0  0  0  0  0  0  0  0  0  0  0  0
   19.6084   11.8658   10.8893 C   0  0  0  0  0  0  0  0  0  0  0  0
   21.9396   11.6490   10.2955 O   0  0  0  0  0  0  0  0  0  0  0  0
   23.0460   12.4643   10.7267 C   0  0  0  0  0  0  0  0  0  0  0  0
   22.6358   13.5722   11.5651 O   0  0  0  0  0  0  0  0  0  0  0  0
  2  1  2  0
  3  2  1  0
  4  3  1  0
  4  9  1  0
  4  5  2  0
  5  6  1  0
  6  7  2  0
  7  8  1  0
  8  9  2  0
 11 12  1  0
 11 15  2  0
 12 13  2  0
 13 17  1  0
 13 14  1  0
 14 15  1  0
 16 21  2  0
 16 17  1  0
 17 18  2  0
 18 19  1  0
 19 20  2  0
 19 24  1  0
 20 22  1  0
 20 21  1  0
 22 23  1  0
 23 24  1  0
 21 10  1  0
  2 16  1  0
M  END
>  <generation_date>  (279) 
None

>  <inchikey>  (279) 
IOLQAZKPZSYRAS-UHFFFAOYSA-N

>  <ref_mols>  (279) 
cx0692a,cx0864b

>  <tags>  (279) 
['butcher: adenine', 'fragmenstein', 'select (DF) [arg144_pures]', 'arg144_pures', 'raw', 'butcher: arginine']

>  <ref_pdb>  (279) 
cx0270a

>  <alias>  (279) 
cx0692a-cx0864b

>  <submitter_name>  (279) 
None

>  <HIPPO ID>  (279) 
3694

>  <original ID>  (279) 
cx0692a-cx0864b

>  <method>  (279) 
None

>  <ref_url>  (279) 
None

>  <submitter_email>  (279) 
None

>  <original SMILES>  (279) 
O=C(Nc1ccccc1)c1c(-c2ccn[nH]2)cc2c(c1O)OCO2

$$$$
cx0692a-cx0864d
     RDKit          3D

 22 25  0  0  0  0  0  0  0  0999 V2000
   16.2427   13.3882   11.9007 O   0  0  0  0  0  0  0  0  0  0  0  0
   25.2261   13.8626   10.9173 C   0  0  0  0  0  0  0  0  0  0  0  0
   23.9812   13.8286   11.5680 C   0  0  0  0  0  0  0  0  0  0  0  0
   23.1642   13.0466   10.7743 C   0  0  0  0  0  0  0  0  0  0  0  0
   23.9884   12.6245    9.7478 N   0  0  0  0  0  0  0  0  0  0  0  0
   25.2342   13.1253    9.8126 N   0  0  0  0  0  0  0  0  0  0  0  0
   21.2708   11.5113   10.3091 C   0  0  0  0  0  0  0  0  0  0  0  0
   21.7548   12.6804   10.9174 C   0  0  0  0  0  0  0  0  0  0  0  0
   20.8565   13.4820   11.6483 C   0  0  0  0  0  0  0  0  0  0  0  0
   19.5373   13.0715   11.7580 C   0  0  0  0  0  0  0  0  0  0  0  0
   19.0767   11.9185   11.1610 C   0  0  0  0  0  0  0  0  0  0  0  0
   19.9221   11.1604   10.3895 C   0  0  0  0  0  0  0  0  0  0  0  0
   17.7393   11.6309   11.4932 N   0  0  0  0  0  0  0  0  0  0  0  0
   17.4264   12.7881   12.3536 C   0  0  1  0  0  0  0  0  0  0  0  0
   18.5348   13.7219   12.4249 O   0  0  0  0  0  0  0  0  0  0  0  0
   16.8590   11.1351   10.5560 N   0  0  0  0  0  0  0  0  0  0  0  0
   16.0311   10.0115   10.7696 C   0  0  0  0  0  0  0  0  0  0  0  0
   15.7379    9.5181   12.0408 C   0  0  0  0  0  0  0  0  0  0  0  0
   14.9412    8.3822   12.1902 C   0  0  0  0  0  0  0  0  0  0  0  0
   14.3788    7.7696   11.0722 C   0  0  0  0  0  0  0  0  0  0  0  0
   14.5735    8.3197    9.8119 C   0  0  0  0  0  0  0  0  0  0  0  0
   15.3984    9.4308    9.6635 C   0  0  0  0  0  0  0  0  0  0  0  0
  2  3  1  0
  2  6  2  0
  3  4  2  0
  4  8  1  0
  4  5  1  0
  5  6  1  0
  7 12  2  0
  7  8  1  0
  8  9  2  0
  9 10  1  0
 10 11  2  0
 10 15  1  0
 11 13  1  0
 11 12  1  0
 13 14  1  0
 14 15  1  0
 14  1  1  6
 17 16  1  0
 17 22  1  0
 17 18  2  0
 18 19  1  0
 19 20  2  0
 20 21  1  0
 21 22  2  0
 13 16  1  0
M  END
>  <generation_date>  (280) 
None

>  <inchikey>  (280) 
PPOABDMMRXXBHZ-MRXNPFEDSA-N

>  <ref_mols>  (280) 
cx0692a,cx0864d

>  <tags>  (280) 
['butcher: adenine', 'fragmenstein', 'select (DF) [arg144_pures]', 'arg144_pures', 'raw', 'butcher: arginine']

>  <ref_pdb>  (280) 
cx0270a

>  <alias>  (280) 
cx0692a-cx0864d

>  <submitter_name>  (280) 
None

>  <HIPPO ID>  (280) 
3695

>  <original ID>  (280) 
cx0692a-cx0864d

>  <method>  (280) 
None

>  <ref_url>  (280) 
None

>  <submitter_email>  (280) 
None

>  <original SMILES>  (280) 
O[C@@H]1Oc2cc(-c3ccn[nH]3)ccc2N1Nc1ccccc1

$$$$
cx0692a-cx0892a
     RDKit          3D

 21 22  0  0  0  0  0  0  0  0999 V2000
   17.1397   12.0264   12.6320 O   0  0  0  0  0  0  0  0  0  0  0  0
   17.7014   11.8185   11.5573 C   0  0  0  0  0  0  0  0  0  0  0  0
   19.1060   12.3637   11.2744 C   0  0  0  0  0  0  0  0  0  0  0  0
   19.8574   11.4197   10.5221 O   0  0  0  0  0  0  0  0  0  0  0  0
   21.2616   11.6187   10.6514 C   0  0  0  0  0  0  0  0  0  0  0  0
   17.1416   11.1436   10.4951 N   0  0  0  0  0  0  0  0  0  0  0  0
   15.3947    6.2773   12.0871 O   0  0  0  0  0  0  0  0  0  0  0  0
   15.0019    7.3797   12.4456 C   0  0  0  0  0  0  0  0  0  0  0  0
   14.5784    7.7198   13.7027 N   0  0  0  0  0  0  0  0  0  0  0  0
   14.1379    6.6555   14.5671 C   0  0  0  0  0  0  0  0  0  0  0  0
   16.0355   10.2893   10.5121 C   0  0  0  0  0  0  0  0  0  0  0  0
   15.7265    9.5568   11.6361 C   0  0  0  0  0  0  0  0  0  0  0  0
   14.9427    8.4276   11.4494 C   0  0  0  0  0  0  0  0  0  0  0  0
   14.3032    8.1252   10.2465 C   0  0  0  0  0  0  0  0  0  0  0  0
   14.4698    8.9767    9.1804 C   0  0  0  0  0  0  0  0  0  0  0  0
   15.3824   10.0173    9.3021 C   0  0  0  0  0  0  0  0  0  0  0  0
   11.3978    7.0222   14.9224 S   0  0  0  0  0  0  0  0  0  0  0  0
   10.2933    6.1750   13.9300 C   0  0  0  0  0  0  0  0  0  0  0  0
   10.9303    5.3554   13.0266 C   0  0  0  0  0  0  0  0  0  0  0  0
   12.3462    5.4271   13.1531 C   0  0  0  0  0  0  0  0  0  0  0  0
   12.7434    6.2934   14.1549 C   0  0  0  0  0  0  0  0  0  0  0  0
  5  4  1  0
  4  3  1  0
  3  2  1  0
  2  1  2  0
  6  2  1  0
  8  7  2  0
  9  8  1  0
 10  9  1  0
 11  6  1  0
 11 16  2  0
 11 12  1  0
 12 13  2  0
 13 14  1  0
 14 15  2  0
 15 16  1  0
 17 18  1  0
 17 21  1  0
 18 19  2  0
 19 20  1  0
 20 21  2  0
 21 10  1  0
  8 13  1  0
M  END
>  <generation_date>  (281) 
None

>  <inchikey>  (281) 
QVSYFXSEJNFZKD-UHFFFAOYSA-N

>  <ref_mols>  (281) 
cx0692a,cx0892a

>  <tags>  (281) 
['butcher: adenine', 'butcher: phosphate', 'fragmenstein', 'select (DF) [arg144_pures]', 'arg144_pures', 'raw', 'butcher: arginine']

>  <ref_pdb>  (281) 
cx0270a

>  <alias>  (281) 
cx0692a-cx0892a

>  <submitter_name>  (281) 
None

>  <HIPPO ID>  (281) 
3696

>  <original ID>  (281) 
cx0692a-cx0892a

>  <method>  (281) 
None

>  <ref_url>  (281) 
None

>  <submitter_email>  (281) 
None

>  <original SMILES>  (281) 
COCC(=O)Nc1cccc(C(=O)NCc2cccs2)c1

$$$$
cx0692a-cx0969a
     RDKit          3D

 19 20  0  0  0  0  0  0  0  0999 V2000
   17.4946   12.9782   11.6448 O   0  0  0  0  0  0  0  0  0  0  0  0
   18.2466   12.0855   11.2583 C   0  0  0  0  0  0  0  0  0  0  0  0
   19.7420   12.3254   11.1489 C   0  0  0  0  0  0  0  0  0  0  0  0
   20.3974   11.2291   10.5285 O   0  0  0  0  0  0  0  0  0  0  0  0
   21.8043   11.4484   10.5023 C   0  0  0  0  0  0  0  0  0  0  0  0
   17.8281   10.8080   10.9001 N   0  0  0  0  0  0  0  0  0  0  0  0
   16.7195   11.8968   16.1570 O   0  0  0  0  0  0  0  0  0  0  0  0
   15.9079   10.7776   15.9166 C   0  0  0  0  0  0  0  0  0  0  0  0
   16.4172   10.5747   10.6900 C   0  0  2  0  0  0  0  0  0  0  0  0
   15.5376   10.4917   11.9908 C   0  0  1  0  0  0  0  0  0  0  0  0
   14.8661    9.0973   12.1341 C   0  0  0  0  0  0  0  0  0  0  0  0
   14.4034    8.4214   10.8695 C   0  0  0  0  0  0  0  0  0  0  0  0
   15.5898    8.2527    9.9968 C   0  0  0  0  0  0  0  0  0  0  0  0
   16.0956    9.5946    9.5582 C   0  0  0  0  0  0  0  0  0  0  0  0
   15.2769   10.8797   14.5413 C   0  0  2  0  0  0  0  0  0  0  0  0
   16.2618   10.6544   13.3720 C   0  0  0  0  0  0  0  0  0  0  0  0
   14.5516   11.6863   11.8152 C   0  0  0  0  0  0  0  0  0  0  0  0
   13.7835   12.0739   13.0485 C   0  0  0  0  0  0  0  0  0  0  0  0
   14.6176   12.2306   14.2933 C   0  0  0  0  0  0  0  0  0  0  0  0
  5  4  1  0
  4  3  1  0
  3  2  1  0
  2  1  2  0
  6  2  1  0
  8  7  1  0
  9  6  1  1
  9 14  1  0
 10  9  1  0
 10 11  1  1
 11 12  1  0
 12 13  1  0
 13 14  1  0
 15  8  1  1
 15 19  1  0
 15 16  1  0
 17 18  1  0
 18 19  1  0
 10 16  1  0
 10 17  1  0
M  END
>  <generation_date>  (282) 
None

>  <inchikey>  (282) 
IOWPYPUKJIGVJE-KCQAQPDRSA-N

>  <ref_mols>  (282) 
cx0692a,cx0969a

>  <tags>  (282) 
['butcher: adenine', 'fragmenstein', 'select (DF) [arg144_pures]', 'arg144_pures', 'raw', 'butcher: arginine']

>  <ref_pdb>  (282) 
cx0270a

>  <alias>  (282) 
cx0692a-cx0969a

>  <submitter_name>  (282) 
None

>  <HIPPO ID>  (282) 
3700

>  <original ID>  (282) 
cx0692a-cx0969a

>  <method>  (282) 
None

>  <ref_url>  (282) 
None

>  <submitter_email>  (282) 
None

>  <original SMILES>  (282) 
COCC(=O)N[C@H]1CCCC[C@]12CCC[C@H](CO)C2

$$$$
cx0692a-cx0969f
     RDKit          3D

 21 23  0  0  0  0  0  0  0  0999 V2000
   16.5932   12.2899   12.7187 O   0  0  0  0  0  0  0  0  0  0  0  0
   17.2407   11.9795   11.7233 C   0  0  0  0  0  0  0  0  0  0  0  0
   16.8074   11.1099   10.7452 N   0  0  0  0  0  0  0  0  0  0  0  0
   15.8882   10.0629   10.8993 C   0  0  0  0  0  0  0  0  0  0  0  0
   15.5033    9.5756   12.1469 C   0  0  0  0  0  0  0  0  0  0  0  0
   14.7694    8.3935   12.2321 C   0  0  0  0  0  0  0  0  0  0  0  0
   14.3433    7.7478   11.0731 C   0  0  0  0  0  0  0  0  0  0  0  0
   14.6462    8.2886    9.8298 C   0  0  0  0  0  0  0  0  0  0  0  0
   15.4568    9.4156    9.7404 C   0  0  0  0  0  0  0  0  0  0  0  0
   19.2328   10.7091   10.1129 O   0  0  0  0  0  0  0  0  0  0  0  0
   17.6015   14.1911   14.1537 O   0  0  0  0  0  0  0  0  0  0  0  0
   18.0543   14.6804   12.9070 C   0  0  0  0  0  0  0  0  0  0  0  0
   19.0249   13.7402   12.2227 C   0  0  0  0  0  0  0  0  0  0  0  0
   20.3986   14.0904   12.2170 C   0  0  0  0  0  0  0  0  0  0  0  0
   21.3029   13.3006   11.5254 C   0  0  0  0  0  0  0  0  0  0  0  0
   20.8721   12.1899   10.8445 C   0  0  0  0  0  0  0  0  0  0  0  0
   19.5575   11.8087   10.8386 C   0  0  0  0  0  0  0  0  0  0  0  0
   18.6114   12.5515   11.5545 C   0  0  0  0  0  0  0  0  0  0  0  0
   22.7770   13.3628   11.4087 C   0  0  0  0  0  0  0  0  0  0  0  0
   22.9766   12.3983   10.2335 C   0  0  0  0  0  0  0  0  0  0  0  0
   21.8538   11.4895   10.1966 O   0  0  0  0  0  0  0  0  0  0  0  0
  2  1  2  0
  3  2  1  0
  4  3  1  0
  4  9  1  0
  4  5  2  0
  5  6  1  0
  6  7  2  0
  7  8  1  0
  8  9  2  0
 12 11  1  0
 13 12  1  0
 13 18  2  0
 13 14  1  0
 14 15  2  0
 15 19  1  0
 15 16  1  0
 16 17  2  0
 16 21  1  0
 17 18  1  0
 19 20  1  0
 20 21  1  0
 17 10  1  0
  2 18  1  0
M  END
>  <generation_date>  (283) 
None

>  <inchikey>  (283) 
HZMWNEMTDOMFDH-UHFFFAOYSA-N

>  <ref_mols>  (283) 
cx0692a,cx0969f

>  <tags>  (283) 
['butcher: adenine', 'fragmenstein', 'select (DF) [arg144_pures]', 'arg144_pures', 'raw', 'butcher: arginine']

>  <ref_pdb>  (283) 
cx0270a

>  <alias>  (283) 
cx0692a-cx0969f

>  <submitter_name>  (283) 
None

>  <HIPPO ID>  (283) 
3703

>  <original ID>  (283) 
cx0692a-cx0969f

>  <method>  (283) 
None

>  <ref_url>  (283) 
None

>  <submitter_email>  (283) 
None

>  <original SMILES>  (283) 
O=C(Nc1ccccc1)c1c(CO)cc2c(c1O)OCC2

$$$$
cx0692a-cx1116a
     RDKit          3D

 13 13  0  0  0  0  0  0  0  0999 V2000
   17.2066   13.0050   11.9755 O   0  0  0  0  0  0  0  0  0  0  0  0
   17.8977   12.2144   11.3339 C   0  0  0  0  0  0  0  0  0  0  0  0
   19.4010   12.4514   11.1737 C   0  0  0  0  0  0  0  0  0  0  0  0
   20.0476   11.3549   10.5392 O   0  0  0  0  0  0  0  0  0  0  0  0
   21.4652   11.4801   10.6055 C   0  0  0  0  0  0  0  0  0  0  0  0
   17.4362   11.1156   10.6480 N   0  0  0  0  0  0  0  0  0  0  0  0
   15.5038   11.4067   12.9641 N   0  0  0  0  0  0  0  0  0  0  0  0
   16.2746   10.3468   10.8564 C   0  0  0  0  0  0  0  0  0  0  0  0
   15.4693   10.3906   12.0011 C   0  0  0  0  0  0  0  0  0  0  0  0
   14.7446    9.2365   12.3057 C   0  0  0  0  0  0  0  0  0  0  0  0
   14.5560    8.2203   11.3666 C   0  0  0  0  0  0  0  0  0  0  0  0
   15.1063    8.3505   10.1077 C   0  0  0  0  0  0  0  0  0  0  0  0
   16.0113    9.3784    9.8753 C   0  0  0  0  0  0  0  0  0  0  0  0
  5  4  1  0
  4  3  1  0
  3  2  1  0
  2  1  2  0
  6  2  1  0
  8  6  1  0
  8 13  2  0
  8  9  1  0
  9 10  2  0
 10 11  1  0
 11 12  2  0
 12 13  1  0
  7  9  1  0
M  END
>  <generation_date>  (284) 
None

>  <inchikey>  (284) 
PPHADCGGEPSVTM-UHFFFAOYSA-N

>  <ref_mols>  (284) 
cx0692a,cx1116a

>  <tags>  (284) 
['butcher: adenine', 'fragmenstein', 'select (DF) [arg144_pures]', 'arg144_pures', 'select (JA) [arg144_pures]', 'raw', 'butcher: arginine']

>  <ref_pdb>  (284) 
cx0270a

>  <alias>  (284) 
cx0692a-cx1116a

>  <submitter_name>  (284) 
None

>  <HIPPO ID>  (284) 
3705

>  <original ID>  (284) 
cx0692a-cx1116a

>  <method>  (284) 
None

>  <ref_url>  (284) 
None

>  <submitter_email>  (284) 
None

>  <original SMILES>  (284) 
COCC(=O)Nc1ccccc1N

$$$$
cx0692a-cx1116c
     RDKit          3D

 15 16  0  0  0  0  0  0  0  0999 V2000
   16.3384   12.7141   11.9866 O   0  0  0  0  0  0  0  0  0  0  0  0
   20.7645   11.0408   10.3645 C   0  0  0  0  0  0  0  0  0  0  0  0
   20.4593   13.0370   11.7465 C   0  0  0  0  0  0  0  0  0  0  0  0
   19.8252   11.9805   11.0649 C   0  0  0  0  0  0  0  0  0  0  0  0
   18.4147   11.8084   11.1622 C   0  0  0  0  0  0  0  0  0  0  0  0
   17.7054   12.7603   11.9235 C   0  0  0  0  0  0  0  0  0  0  0  0
   18.3496   13.8073   12.5861 C   0  0  0  0  0  0  0  0  0  0  0  0
   19.7283   13.9400   12.5028 C   0  0  0  0  0  0  0  0  0  0  0  0
   17.7716   10.7300   10.5030 N   0  0  0  0  0  0  0  0  0  0  0  0
   16.5637   10.0271   10.7363 C   0  0  0  0  0  0  0  0  0  0  0  0
   16.0444    9.8067   12.0146 C   0  0  0  0  0  0  0  0  0  0  0  0
   15.0333    8.8670   12.2251 C   0  0  0  0  0  0  0  0  0  0  0  0
   14.4899    8.1724   11.1482 C   0  0  0  0  0  0  0  0  0  0  0  0
   14.8936    8.4771    9.8588 C   0  0  0  0  0  0  0  0  0  0  0  0
   15.9376    9.3787    9.6610 C   0  0  0  0  0  0  0  0  0  0  0  0
  3  8  2  0
  3  4  1  0
  4  5  2  0
  5  6  1  0
  6  7  2  0
  7  8  1  0
  4  2  1  0
  1  6  1  0
 10  9  1  0
 10 15  1  0
 10 11  2  0
 11 12  1  0
 12 13  2  0
 13 14  1  0
 14 15  2  0
  5  9  1  0
M  END
>  <generation_date>  (285) 
None

>  <inchikey>  (285) 
XQWKZXHQRAAZAF-UHFFFAOYSA-N

>  <ref_mols>  (285) 
cx0692a,cx1116c

>  <tags>  (285) 
['butcher: adenine', 'fragmenstein', 'select (DF) [arg144_pures]', 'arg144_pures', 'raw', 'butcher: arginine']

>  <ref_pdb>  (285) 
cx0270a

>  <alias>  (285) 
cx0692a-cx1116c

>  <submitter_name>  (285) 
None

>  <HIPPO ID>  (285) 
3706

>  <original ID>  (285) 
cx0692a-cx1116c

>  <method>  (285) 
None

>  <ref_url>  (285) 
None

>  <submitter_email>  (285) 
None

>  <original SMILES>  (285) 
Cc1cccc(O)c1Nc1ccccc1

$$$$
cx0692a-cx1134a
     RDKit          3D

 18 19  0  0  0  0  0  0  0  0999 V2000
   16.8140   12.5300   11.8340 O   0  0  0  0  0  0  0  0  0  0  0  0
   17.6070   11.8250   11.2020 C   0  0  0  0  0  0  0  0  0  0  0  0
   19.0710   12.2080   11.1290 C   0  0  0  0  0  0  0  0  0  0  0  0
   19.8110   11.1950   10.4570 O   0  0  0  0  0  0  0  0  0  0  0  0
   21.1870   11.5340   10.3050 C   0  0  0  0  0  0  0  0  0  0  0  0
   17.2530   10.6990   10.5320 N   0  0  0  0  0  0  0  0  0  0  0  0
   13.8400   12.9880   11.5770 O   0  0  0  0  0  0  0  0  0  0  0  0
   14.1250   12.2170   10.4360 N   0  0  0  0  0  0  0  0  0  0  0  0
   14.3730   11.0020   10.7790 C   0  0  0  0  0  0  0  0  0  0  0  0
   14.3800   10.5400   12.0910 N   0  0  0  0  0  0  0  0  0  0  0  0
   14.7020   10.0350    9.6700 C   0  0  2  0  0  0  0  0  0  0  0  0
   15.9970   10.0510   10.5390 C   0  0  0  0  0  0  0  0  0  0  0  0
   15.2420    9.9690   11.7050 C   0  0  0  0  0  0  0  0  0  0  0  0
   14.0290    9.2990   11.6980 C   0  0  0  0  0  0  0  0  0  0  0  0
   13.5610    8.7170   10.5400 C   0  0  0  0  0  0  0  0  0  0  0  0
   14.3010    8.8040    9.3820 C   0  0  0  0  0  0  0  0  0  0  0  0
   15.5190    9.4660    9.3740 C   0  0  0  0  0  0  0  0  0  0  0  0
   15.9775   10.3670   10.1010 C   0  0  0  0  0  0  0  0  0  0  0  0
  5  4  1  0
  4  3  1  0
  3  2  1  0
  2  1  2  0
  6  2  1  0
 11  9  1  1
  9  8  2  0
  8  7  1  0
 10  9  1  0
 12 17  2  0
 12 13  1  0
 13 14  2  0
 14 15  1  0
 15 16  2  0
 16 17  1  0
 16 11  1  0
  6 17  1  0
  6 18  1  0
 11 18  1  0
M  END
>  <generation_date>  (286) 
None

>  <inchikey>  (286) 
SPMSYTVRNZIFCI-VIFPVBQESA-N

>  <ref_mols>  (286) 
cx0692a,cx1134a

>  <tags>  (286) 
['butcher: adenine', 'fragmenstein', 'select (DF) [arg144_pures]', 'arg144_pures', 'raw', 'butcher: arginine']

>  <ref_pdb>  (286) 
cx0270a

>  <alias>  (286) 
cx0692a-cx1134a

>  <submitter_name>  (286) 
None

>  <HIPPO ID>  (286) 
3710

>  <original ID>  (286) 
cx0692a-cx1134a

>  <method>  (286) 
None

>  <ref_url>  (286) 
None

>  <submitter_email>  (286) 
None

>  <original SMILES>  (286) 
COCC(=O)N1C[C@H](/C(N)=N/O)c2ccccc21

$$$$
cx0692a-cx1213a
     RDKit          3D

 17 18  0  0  0  0  0  0  0  0999 V2000
   17.4247   12.9597   11.7720 O   0  0  0  0  0  0  0  0  0  0  0  0
   18.1301   12.1396   11.2024 C   0  0  0  0  0  0  0  0  0  0  0  0
   19.6264   12.4070   11.0591 C   0  0  0  0  0  0  0  0  0  0  0  0
   20.3016   11.2813   10.5087 O   0  0  0  0  0  0  0  0  0  0  0  0
   21.7117   11.4793   10.5319 C   0  0  0  0  0  0  0  0  0  0  0  0
   17.7423   10.9324   10.6839 N   0  0  0  0  0  0  0  0  0  0  0  0
   16.5227   10.1554   10.8054 C   0  0  1  0  0  0  0  0  0  0  0  0
   15.4846   10.3727   11.9459 C   0  0  2  0  0  0  0  0  0  0  0  0
   14.9226    8.9230   12.1506 C   0  0  0  0  0  0  0  0  0  0  0  0
   14.6063    8.1238   10.8738 C   0  0  0  0  0  0  0  0  0  0  0  0
   14.6276    8.9263    9.5815 C   0  0  0  0  0  0  0  0  0  0  0  0
   15.8475    9.8427    9.4577 C   0  0  0  0  0  0  0  0  0  0  0  0
   14.6617   12.7468   11.7538 N   0  0  0  0  0  0  0  0  0  0  0  0
   14.3464   11.3559   11.5457 C   0  0  0  0  0  0  0  0  0  0  0  0
   16.0431   10.8094   13.3342 C   0  0  0  0  0  0  0  0  0  0  0  0
   15.1518   11.8369   14.0402 C   0  0  0  0  0  0  0  0  0  0  0  0
   14.8125   13.0517   13.1700 C   0  0  0  0  0  0  0  0  0  0  0  0
  5  4  1  0
  4  3  1  0
  3  2  1  0
  2  1  2  0
  6  2  1  0
  7  6  1  6
  7 12  1  0
  8  7  1  0
  8  9  1  1
  9 10  1  0
 10 11  1  0
 11 12  1  0
 13 17  1  0
 13 14  1  0
 15 16  1  0
 16 17  1  0
  8 14  1  0
  8 15  1  0
M  END
>  <generation_date>  (287) 
None

>  <inchikey>  (287) 
GNBHRAZXCYIDFU-YPMHNXCESA-N

>  <ref_mols>  (287) 
cx0692a,cx1213a

>  <tags>  (287) 
['butcher: adenine', 'fragmenstein', 'select (DF) [arg144_pures]', 'arg144_pures', 'raw', 'butcher: arginine']

>  <ref_pdb>  (287) 
cx0270a

>  <alias>  (287) 
cx0692a-cx1213a

>  <submitter_name>  (287) 
None

>  <HIPPO ID>  (287) 
3711

>  <original ID>  (287) 
cx0692a-cx1213a

>  <method>  (287) 
None

>  <ref_url>  (287) 
None

>  <submitter_email>  (287) 
None

>  <original SMILES>  (287) 
COCC(=O)N[C@@H]1CCCC[C@@]12CCCNC2

$$$$
cx0692a-cx1278a
     RDKit          3D

 20 21  0  0  0  0  0  0  0  0999 V2000
   17.0320   13.1744   11.7234 O   0  0  0  0  0  0  0  0  0  0  0  0
   17.8774   12.3218   11.5055 C   0  0  0  0  0  0  0  0  0  0  0  0
   19.3717   12.6529   11.3562 C   0  0  0  0  0  0  0  0  0  0  0  0
   20.0360   11.5300   10.7557 O   0  0  0  0  0  0  0  0  0  0  0  0
   21.4478   11.7130   10.7124 C   0  0  0  0  0  0  0  0  0  0  0  0
   17.6555   10.9789   11.4089 N   0  0  0  0  0  0  0  0  0  0  0  0
   15.9535   10.6718   15.4168 O   0  0  0  0  0  0  0  0  0  0  0  0
   15.4732   10.0563   14.4777 C   0  0  0  0  0  0  0  0  0  0  0  0
   15.2651    8.7078   14.4477 O   0  0  0  0  0  0  0  0  0  0  0  0
   15.3411    8.0668   15.7150 C   0  0  0  0  0  0  0  0  0  0  0  0
   16.4818   10.1840   11.1565 C   0  0  1  0  0  0  0  0  0  0  0  0
   15.1057   10.3295   11.8340 C   0  0  1  0  0  0  0  0  0  0  0  0
   14.5740    8.8662   11.5791 C   0  0  0  0  0  0  0  0  0  0  0  0
   14.2103    8.5851   10.1353 C   0  0  0  0  0  0  0  0  0  0  0  0
   15.4358    8.7775    9.3066 C   0  0  0  0  0  0  0  0  0  0  0  0
   16.2849    9.9797    9.6474 C   0  0  0  0  0  0  0  0  0  0  0  0
   14.7897   10.6710   13.3021 C   0  0  2  0  0  0  0  0  0  0  0  0
   14.6331   12.1693   13.3841 C   0  0  0  0  0  0  0  0  0  0  0  0
   13.8503   12.4043   12.1779 N   0  0  0  0  0  0  0  0  0  0  0  0
   14.4166   11.5465   11.1457 C   0  0  0  0  0  0  0  0  0  0  0  0
  5  4  1  0
  4  3  1  0
  3  2  1  0
  2  1  2  0
  6  2  1  0
 10  9  1  0
  9  8  1  0
  8  7  2  0
 11  6  1  6
 11 16  1  0
 12 11  1  0
 12 13  1  6
 13 14  1  0
 14 15  1  0
 15 16  1  0
 17  8  1  1
 17 18  1  0
 18 19  1  0
 19 20  1  0
 12 17  1  0
 12 20  1  0
M  END
>  <generation_date>  (288) 
None

>  <inchikey>  (288) 
DZZBIAOVYFHMIS-JTNHKYCSSA-N

>  <ref_mols>  (288) 
cx0692a,cx1278a

>  <tags>  (288) 
['butcher: adenine', 'fragmenstein', 'select (DF) [arg144_pures]', 'arg144_pures', 'raw', 'butcher: arginine']

>  <ref_pdb>  (288) 
cx0270a

>  <alias>  (288) 
cx0692a-cx1278a

>  <submitter_name>  (288) 
None

>  <HIPPO ID>  (288) 
3717

>  <original ID>  (288) 
cx0692a-cx1278a

>  <method>  (288) 
None

>  <ref_url>  (288) 
None

>  <submitter_email>  (288) 
None

>  <original SMILES>  (288) 
COCC(=O)N[C@@H]1CCCC[C@]12CNC[C@@H]2C(=O)OC

$$$$
cx0692a-cx1298a
     RDKit          3D

 24 26  0  0  0  0  0  0  0  0999 V2000
   17.1146   13.3681   11.7944 O   0  0  0  0  0  0  0  0  0  0  0  0
   17.9270   12.4593   11.7053 C   0  0  0  0  0  0  0  0  0  0  0  0
   19.4319   12.6869   11.5196 C   0  0  0  0  0  0  0  0  0  0  0  0
   19.9965   11.5198   10.9008 O   0  0  0  0  0  0  0  0  0  0  0  0
   21.4097   11.6366   10.7573 C   0  0  0  0  0  0  0  0  0  0  0  0
   17.5907   11.1207   11.7312 N   0  0  0  0  0  0  0  0  0  0  0  0
   13.9698   12.2857   11.2485 C   0  0  0  0  0  0  0  0  0  0  0  0
   14.4106   12.9999   13.6890 O   0  0  0  0  0  0  0  0  0  0  0  0
   15.3869   11.4938   15.7696 C   0  0  0  0  0  0  0  0  0  0  0  0
   15.6193    6.7366   12.1202 C   0  0  0  0  0  0  0  0  0  0  0  0
   16.4589   10.6649   10.9539 C   0  0  2  0  0  0  0  0  0  0  0  0
   15.2022   10.0705   11.6518 C   0  0  1  0  0  0  0  0  0  0  0  0
   14.3525    9.2763   10.6080 C   0  0  0  0  0  0  0  0  0  0  0  0
   14.9392    8.5637    9.4273 C   0  0  0  0  0  0  0  0  0  0  0  0
   15.9997    9.4451    8.8722 C   0  0  0  0  0  0  0  0  0  0  0  0
   17.0032    9.7021    9.9524 C   0  0  0  0  0  0  0  0  0  0  0  0
   15.4714    9.1946   12.8525 C   0  0  0  0  0  0  0  0  0  0  0  0
   15.4908    9.6918   14.1289 C   0  0  0  0  0  0  0  0  0  0  0  0
   15.2068   10.9947   14.4226 N   0  0  0  0  0  0  0  0  0  0  0  0
   14.6849   11.8227   13.4475 C   0  0  0  0  0  0  0  0  0  0  0  0
   14.4137   11.2534   12.1870 N   0  0  0  0  0  0  0  0  0  0  0  0
   15.6588    7.8407   13.0421 N   0  0  0  0  0  0  0  0  0  0  0  0
   15.8841    7.6398   14.3826 C   0  0  0  0  0  0  0  0  0  0  0  0
   15.8041    8.7551   15.0610 N   0  0  0  0  0  0  0  0  0  0  0  0
  5  4  1  0
  4  3  1  0
  3  2  1  0
  2  1  2  0
  6  2  1  0
 11  6  1  1
 11 16  1  0
 11 12  1  0
 12 13  1  6
 13 14  1  0
 14 15  1  0
 15 16  1  0
 17 22  1  0
 17 18  2  0
 18 24  1  0
 18 19  1  0
 19  9  1  0
 19 20  1  0
 20  8  2  0
 20 21  1  0
 21  7  1  0
 22 10  1  0
 22 23  1  0
 23 24  2  0
 12 21  1  0
 12 17  1  0
M  END
>  <generation_date>  (289) 
None

>  <inchikey>  (289) 
VVHSYQXTFULJLI-ZBEGNZNMSA-N

>  <ref_mols>  (289) 
cx1298a,cx0692a

>  <tags>  (289) 
['butcher: adenine', 'fragmenstein', 'select (DF) [arg144_pures]', 'arg144_pures', 'raw', 'butcher: arginine']

>  <ref_pdb>  (289) 
cx0270a

>  <alias>  (289) 
cx0692a-cx1298a

>  <submitter_name>  (289) 
None

>  <HIPPO ID>  (289) 
3720

>  <original ID>  (289) 
cx0692a-cx1298a

>  <method>  (289) 
None

>  <ref_url>  (289) 
None

>  <submitter_email>  (289) 
None

>  <original SMILES>  (289) 
COCC(=O)N[C@H]1CCCC[C@@]12c1c(ncn1C)N(C)C(=O)N2C

$$$$
cx0692a-cx1371b
     RDKit          3D

 19 20  0  0  0  0  0  0  0  0999 V2000
   17.0022   11.9060   12.6959 O   0  0  0  0  0  0  0  0  0  0  0  0
   17.4883   11.6999   11.5914 C   0  0  0  0  0  0  0  0  0  0  0  0
   16.9086   10.9519   10.5853 N   0  0  0  0  0  0  0  0  0  0  0  0
   15.9313    9.9564   10.7504 C   0  0  0  0  0  0  0  0  0  0  0  0
   15.5957    9.4124   11.9893 C   0  0  0  0  0  0  0  0  0  0  0  0
   14.7905    8.2760   12.0556 C   0  0  0  0  0  0  0  0  0  0  0  0
   14.2589    7.7262   10.8918 C   0  0  0  0  0  0  0  0  0  0  0  0
   14.5058    8.3324    9.6666 C   0  0  0  0  0  0  0  0  0  0  0  0
   15.3688    9.4210    9.5917 C   0  0  0  0  0  0  0  0  0  0  0  0
   18.4301   14.5070   12.7632 Cl  0  0  0  0  0  0  0  0  0  0  0  0
   22.8688   13.3133   10.4217 C   0  0  0  0  0  0  0  0  0  0  0  0
   23.2689   13.0616    9.2971 O   0  0  0  0  0  0  0  0  0  0  0  0
   23.6014   14.0125   11.3292 N   0  0  0  0  0  0  0  0  0  0  0  0
   19.3720   13.3889   11.8429 C   0  0  0  0  0  0  0  0  0  0  0  0
   20.7027   13.7426   11.5967 C   0  0  0  0  0  0  0  0  0  0  0  0
   21.5260   12.8919   10.8523 C   0  0  0  0  0  0  0  0  0  0  0  0
   21.0435   11.6790   10.3778 C   0  0  0  0  0  0  0  0  0  0  0  0
   19.7070   11.3559   10.5750 C   0  0  0  0  0  0  0  0  0  0  0  0
   18.8566   12.2030   11.3026 C   0  0  0  0  0  0  0  0  0  0  0  0
  2  1  2  0
  3  2  1  0
  4  3  1  0
  4  9  1  0
  4  5  2  0
  5  6  1  0
  6  7  2  0
  7  8  1  0
  8  9  2  0
 13 11  1  0
 12 11  2  0
 14 19  2  0
 14 10  1  0
 14 15  1  0
 15 16  2  0
 16 11  1  0
 16 17  1  0
 17 18  2  0
 18 19  1  0
  2 19  1  0
M  END
>  <generation_date>  (290) 
None

>  <inchikey>  (290) 
QQBWHKPVEOERHW-UHFFFAOYSA-N

>  <ref_mols>  (290) 
cx0692a,cx1371b

>  <tags>  (290) 
['butcher: adenine', 'fragmenstein', 'select (DF) [arg144_pures]', 'arg144_pures', 'raw', 'butcher: arginine']

>  <ref_pdb>  (290) 
cx0270a

>  <alias>  (290) 
cx0692a-cx1371b

>  <submitter_name>  (290) 
None

>  <HIPPO ID>  (290) 
3727

>  <original ID>  (290) 
cx0692a-cx1371b

>  <method>  (290) 
None

>  <ref_url>  (290) 
None

>  <submitter_email>  (290) 
None

>  <original SMILES>  (290) 
NC(=O)c1ccc(C(=O)Nc2ccccc2)c(Cl)c1

$$$$
cx0692a-cx1379e
     RDKit          3D

 21 23  0  0  0  0  0  0  0  0999 V2000
   16.9938   11.9507   12.6764 O   0  0  0  0  0  0  0  0  0  0  0  0
   17.5018   11.7193   11.5855 C   0  0  0  0  0  0  0  0  0  0  0  0
   16.9249   10.9596   10.5846 N   0  0  0  0  0  0  0  0  0  0  0  0
   15.9446    9.9686   10.7539 C   0  0  0  0  0  0  0  0  0  0  0  0
   15.6039    9.4366   11.9966 C   0  0  0  0  0  0  0  0  0  0  0  0
   14.7980    8.3012   12.0707 C   0  0  0  0  0  0  0  0  0  0  0  0
   14.2705    7.7406   10.9100 C   0  0  0  0  0  0  0  0  0  0  0  0
   14.5223    8.3350    9.6800 C   0  0  0  0  0  0  0  0  0  0  0  0
   15.3864    9.4223    9.5982 C   0  0  0  0  0  0  0  0  0  0  0  0
   23.0583   13.3289    9.1271 O   0  0  0  0  0  0  0  0  0  0  0  0
   23.0156   13.1783   10.5402 C   0  0  0  0  0  0  0  0  0  0  0  0
   21.5953   12.8479   10.8999 C   0  0  0  0  0  0  0  0  0  0  0  0
   20.7692   13.6866   11.6612 C   0  0  0  0  0  0  0  0  0  0  0  0
   19.4110   13.3670   11.8640 C   0  0  0  0  0  0  0  0  0  0  0  0
   18.8846   12.1964   11.3016 C   0  0  0  0  0  0  0  0  0  0  0  0
   19.7242   11.3485   10.5734 C   0  0  0  0  0  0  0  0  0  0  0  0
   21.0680   11.6520   10.4041 C   0  0  0  0  0  0  0  0  0  0  0  0
   21.3396   14.8239   12.1864 O   0  0  0  0  0  0  0  0  0  0  0  0
   18.5678   14.1696   12.5916 O   0  0  0  0  0  0  0  0  0  0  0  0
   19.1367   15.4322   12.9369 C   0  0  0  0  0  0  0  0  0  0  0  0
   20.5963   15.2883   13.3168 C   0  0  0  0  0  0  0  0  0  0  0  0
  2  1  2  0
  3  2  1  0
  4  3  1  0
  4  9  1  0
  4  5  2  0
  5  6  1  0
  6  7  2  0
  7  8  1  0
  8  9  2  0
 11 10  1  0
 12 11  1  0
 12 17  2  0
 12 13  1  0
 13 18  1  0
 13 14  2  0
 14 15  1  0
 14 19  1  0
 15 16  2  0
 16 17  1  0
 18 21  1  0
 19 20  1  0
 20 21  1  0
  2 15  1  0
M  END
>  <generation_date>  (291) 
None

>  <inchikey>  (291) 
RRJMGDPCLBVSAU-UHFFFAOYSA-N

>  <ref_mols>  (291) 
cx0692a,cx1379e

>  <tags>  (291) 
['butcher: adenine', 'fragmenstein', 'select (HA) [arg144_pures]', 'select (DF) [arg144_pures]', 'arg144_pures', 'select (JA) [arg144_pures]', 'raw', 'butcher: arginine']

>  <ref_pdb>  (291) 
cx0270a

>  <alias>  (291) 
cx0692a-cx1379e

>  <submitter_name>  (291) 
None

>  <HIPPO ID>  (291) 
3730

>  <original ID>  (291) 
cx0692a-cx1379e

>  <method>  (291) 
None

>  <ref_url>  (291) 
None

>  <submitter_email>  (291) 
None

>  <original SMILES>  (291) 
O=C(Nc1ccccc1)c1ccc(CO)c2c1OCCO2

$$$$
cx0692a-cx1444a
     RDKit          3D

 17 18  0  0  0  0  0  0  0  0999 V2000
   17.3691   13.1185   11.7589 O   0  0  0  0  0  0  0  0  0  0  0  0
   18.0895   12.2163   11.3415 C   0  0  0  0  0  0  0  0  0  0  0  0
   19.5926   12.4098   11.1865 C   0  0  0  0  0  0  0  0  0  0  0  0
   20.2042   11.2676   10.5999 O   0  0  0  0  0  0  0  0  0  0  0  0
   21.6216   11.4106   10.5834 C   0  0  0  0  0  0  0  0  0  0  0  0
   17.6299   10.9593   11.0027 N   0  0  0  0  0  0  0  0  0  0  0  0
   16.2091   10.6709   10.8898 C   0  0  2  0  0  0  0  0  0  0  0  0
   15.4465   10.3794   12.2430 C   0  0  0  0  0  0  0  0  0  0  0  0
   15.0823    8.8581   12.3397 C   0  0  0  0  0  0  0  0  0  0  0  0
   14.5844    8.1186   11.0964 C   0  0  0  0  0  0  0  0  0  0  0  0
   14.6636    8.9251    9.8244 C   0  0  0  0  0  0  0  0  0  0  0  0
   15.9979    9.6210    9.7875 C   0  0  0  0  0  0  0  0  0  0  0  0
   16.2070   10.7093   13.5727 C   0  0  0  0  0  0  0  0  0  0  0  0
   14.1734   11.2678   12.2287 C   0  0  0  0  0  0  0  0  0  0  0  0
   14.3508   12.6904   12.7445 C   0  0  0  0  0  0  0  0  0  0  0  0
   14.8491   12.7335   14.1816 C   0  0  0  0  0  0  0  0  0  0  0  0
   15.3584   11.3793   14.6558 C   0  0  0  0  0  0  0  0  0  0  0  0
  5  4  1  0
  4  3  1  0
  3  2  1  0
  2  1  2  0
  6  2  1  0
  7  6  1  1
  7 12  1  0
  7  8  1  0
  8  9  1  0
  9 10  1  0
 10 11  1  0
 11 12  1  0
 13 17  1  0
 14 15  1  0
 15 16  1  0
 16 17  1  0
  8 13  1  0
  8 14  1  0
M  END
>  <generation_date>  (292) 
None

>  <inchikey>  (292) 
NEBUHSIGJIREQH-LBPRGKRZSA-N

>  <ref_mols>  (292) 
cx1444a,cx0692a

>  <tags>  (292) 
['butcher: adenine', 'fragmenstein', 'select (DF) [arg144_pures]', 'arg144_pures', 'raw', 'butcher: arginine']

>  <ref_pdb>  (292) 
cx0270a

>  <alias>  (292) 
cx0692a-cx1444a

>  <submitter_name>  (292) 
None

>  <HIPPO ID>  (292) 
3741

>  <original ID>  (292) 
cx0692a-cx1444a

>  <method>  (292) 
None

>  <ref_url>  (292) 
None

>  <submitter_email>  (292) 
None

>  <original SMILES>  (292) 
COCC(=O)N[C@H]1CCCCC12CCCCC2

$$$$
cx0721a-cx0289a
     RDKit          3D

 25 27  0  0  0  0  0  0  0  0999 V2000
   16.1601   10.0393   10.3340 C   0  0  1  0  0  0  0  0  0  0  0  0
   16.3362    8.2261   15.2538 C   0  0  0  0  0  0  0  0  0  0  0  0
   15.5318    7.1975   15.9426 C   0  0  2  0  0  0  0  0  0  0  0  0
   14.6360    7.6341   16.9592 O   0  0  0  0  0  0  0  0  0  0  0  0
   16.1332    5.9024   16.1628 N   0  0  0  0  0  0  0  0  0  0  0  0
   15.1572    4.8293   16.2876 C   0  0  0  0  0  0  0  0  0  0  0  0
   17.0335    5.9042   17.3175 C   0  0  0  0  0  0  0  0  0  0  0  0
   15.4995    9.8262    9.0875 O   0  0  0  0  0  0  0  0  0  0  0  0
   17.5281   10.4344   10.1606 N   0  0  0  0  0  0  0  0  0  0  0  0
   15.9122   10.1584   12.3572 C   0  0  0  0  0  0  0  0  0  0  0  0
   14.3890   12.6431   13.8212 S   0  0  0  0  0  0  0  0  0  0  0  0
   14.0823   12.9210   12.0749 C   0  0  0  0  0  0  0  0  0  0  0  0
   14.6529   11.9817   11.1359 N   0  0  0  0  0  0  0  0  0  0  0  0
   15.3496   10.8957   11.3590 C   0  0  0  0  0  0  0  0  0  0  0  0
   19.7084   11.1052   10.4357 N   0  0  0  0  0  0  0  0  0  0  0  0
   18.4142   11.3406   10.7370 C   0  0  0  0  0  0  0  0  0  0  0  0
   18.0771   12.4332   11.5236 C   0  0  0  0  0  0  0  0  0  0  0  0
   19.0707   13.2988   11.9893 C   0  0  0  0  0  0  0  0  0  0  0  0
   20.3953   13.0505   11.6726 C   0  0  0  0  0  0  0  0  0  0  0  0
   20.6653   11.9407   10.9022 C   0  0  0  0  0  0  0  0  0  0  0  0
   14.9902    7.8611   11.6521 C   0  0  0  0  0  0  0  0  0  0  0  0
   16.0351    8.9443   11.4347 C   0  0  1  0  0  0  0  0  0  0  0  0
   13.8378    9.1165   14.5419 C   0  0  0  0  0  0  0  0  0  0  0  0
   14.7476    7.6285   14.4524 S   0  0  1  0  0  4  0  0  0  0  0  0
   15.3179    7.0348   12.9036 C   0  0  0  0  0  0  0  0  0  0  0  0
  7  5  1  0
  6  5  1  0
  5  3  1  0
  3  4  1  1
  3  2  1  0
  1  8  1  6
  9  1  1  0
 10 14  2  0
 11 12  1  0
 12 13  1  0
 13 14  1  0
 14  1  1  0
 15 20  2  0
 15 16  1  0
 16  9  1  0
 16 17  2  0
 17 18  1  0
 18 19  2  0
 19 20  1  0
 21 25  1  0
 22 21  1  6
 24 23  1  6
 24 25  1  0
  1 22  1  0
  3 24  1  0
 24  2  1  0
 10 22  1  0
M  END
>  <generation_date>  (293) 
None

>  <inchikey>  (293) 
BVAGKZUXIOMZIK-KBRIMQKVSA-N

>  <ref_mols>  (293) 
cx0289a,cx0721a

>  <tags>  (293) 
['butcher: adenine', 'fragmenstein', 'select (DF) [arg144_pures]', 'arg144_pures', 'raw', 'butcher: arginine']

>  <ref_pdb>  (293) 
cx0270a

>  <alias>  (293) 
cx0721a-cx0289a

>  <submitter_name>  (293) 
None

>  <HIPPO ID>  (293) 
3747

>  <original ID>  (293) 
cx0721a-cx0289a

>  <method>  (293) 
None

>  <ref_url>  (293) 
None

>  <submitter_email>  (293) 
None

>  <original SMILES>  (293) 
CN(C)[C@@]1(O)C[S@]1(C)CC[C@@H]1C=C(NCS)[C@@]1(O)Nc1ccccn1

$$$$
cx0721a-cx0692a
     RDKit          3D

 16 17  0  0  0  0  0  0  0  0999 V2000
   17.2489   12.4262   11.8922 O   0  0  0  0  0  0  0  0  0  0  0  0
   18.0874   11.8690   11.1958 C   0  0  0  0  0  0  0  0  0  0  0  0
   19.5367   12.3679   11.1584 C   0  0  0  0  0  0  0  0  0  0  0  0
   20.3573   11.3647   10.5582 O   0  0  0  0  0  0  0  0  0  0  0  0
   21.7346   11.7117   10.5994 C   0  0  0  0  0  0  0  0  0  0  0  0
   17.8923   10.8107   10.3506 N   0  0  0  0  0  0  0  0  0  0  0  0
   14.7476   10.0203   12.4626 C   0  0  0  0  0  0  0  0  0  0  0  0
   14.4322   10.9530   13.8848 S   0  0  0  0  0  0  0  0  0  0  0  0
   14.2951   12.5135   12.9043 C   0  0  0  0  0  0  0  0  0  0  0  0
   14.6350   12.1465   11.5266 N   0  0  0  0  0  0  0  0  0  0  0  0
   14.8835   10.7896   11.3774 C   0  0  0  0  0  0  0  0  0  0  0  0
   16.8264    9.8539   10.1542 C   0  0  0  0  0  0  0  0  0  0  0  0
   14.8519    8.5339   12.4241 C   0  0  0  0  0  0  0  0  0  0  0  0
   14.6196    7.9226   11.0188 C   0  0  0  0  0  0  0  0  0  0  0  0
   14.5723    8.9084    9.8312 C   0  0  0  0  0  0  0  0  0  0  0  0
   15.3509   10.2142   10.0883 C   0  0  1  0  0  0  0  0  0  0  0  0
  5  4  1  0
  4  3  1  0
  3  2  1  0
  2  1  2  0
  6  2  1  0
  7  8  1  0
  7 11  2  0
  8  9  1  0
  9 10  1  0
 10 11  1  0
 12  6  1  0
 16 12  1  1
 13 14  1  0
 14 15  1  0
 15 16  1  0
  7 13  1  0
 16 11  1  0
M  END
>  <generation_date>  (294) 
None

>  <inchikey>  (294) 
VMDOHGKJUXIANC-MRVPVSSYSA-N

>  <ref_mols>  (294) 
cx0692a,cx0721a

>  <tags>  (294) 
['butcher: adenine', 'fragmenstein', 'select (DF) [arg144_pures]', 'arg144_pures', 'raw', 'butcher: arginine']

>  <ref_pdb>  (294) 
cx0270a

>  <alias>  (294) 
cx0721a-cx0692a

>  <submitter_name>  (294) 
None

>  <HIPPO ID>  (294) 
3754

>  <original ID>  (294) 
cx0721a-cx0692a

>  <method>  (294) 
None

>  <ref_url>  (294) 
None

>  <submitter_email>  (294) 
None

>  <original SMILES>  (294) 
COCC(=O)NC[C@H]1CCCC2=C1NCS2

$$$$
cx0839e-cx0289a
     RDKit          3D

 23 25  0  0  0  0  0  0  0  0999 V2000
   18.5445   16.1827   15.5199 C   0  0  0  0  0  0  0  0  0  0  0  0
   18.2354   16.1289   14.1041 N   0  0  0  0  0  0  0  0  0  0  0  0
   15.2476   11.3615   10.0706 O   0  0  0  0  0  0  0  0  0  0  0  0
   15.9155   10.0855   10.2031 S   0  0  0  0  0  6  0  0  0  0  0  0
   15.5959    8.9917    9.3116 O   0  0  0  0  0  0  0  0  0  0  0  0
   14.7296    8.0400   15.6945 N   0  0  0  0  0  0  0  0  0  0  0  0
   17.5930   10.2416   10.1840 N   0  0  0  0  0  0  0  0  0  0  0  0
   18.9034   15.1339   13.3992 C   0  0  0  0  0  0  0  0  0  0  0  0
   18.1076   14.2037   12.8474 N   0  0  0  0  0  0  0  0  0  0  0  0
   18.7008   13.2532   12.1147 C   0  0  0  0  0  0  0  0  0  0  0  0
   20.1001   13.2184   11.9098 C   0  0  0  0  0  0  0  0  0  0  0  0
   20.9010   14.1424   12.4641 N   0  0  0  0  0  0  0  0  0  0  0  0
   20.2818   15.0912   13.2110 C   0  0  0  0  0  0  0  0  0  0  0  0
   17.8810   12.2891   11.5537 C   0  0  0  0  0  0  0  0  0  0  0  0
   20.6183   12.2129   11.1118 C   0  0  0  0  0  0  0  0  0  0  0  0
   19.7723   11.2585   10.5333 C   0  0  0  0  0  0  0  0  0  0  0  0
   18.3881   11.2834   10.7522 C   0  0  0  0  0  0  0  0  0  0  0  0
   15.5975    8.1084   12.0925 C   0  0  0  0  0  0  0  0  0  0  0  0
   15.5840    9.4829   11.8472 C   0  0  0  0  0  0  0  0  0  0  0  0
   15.2141   10.3696   12.8603 C   0  0  0  0  0  0  0  0  0  0  0  0
   14.9675    9.8861   14.1466 C   0  0  0  0  0  0  0  0  0  0  0  0
   15.0865    8.5237   14.4319 C   0  0  0  0  0  0  0  0  0  0  0  0
   15.3356    7.6353   13.3810 C   0  0  0  0  0  0  0  0  0  0  0  0
  2  1  1  0
  5  4  2  0
  4  3  2  0
  7  4  1  0
  8  2  1  0
  8 13  2  0
  8  9  1  0
  9 10  2  0
 10 14  1  0
 10 11  1  0
 11 12  2  0
 11 15  1  0
 12 13  1  0
 14 17  2  0
 15 16  2  0
 16 17  1  0
 18 23  2  0
 18 19  1  0
 19 20  2  0
 19  4  1  0
 20 21  1  0
 21 22  2  0
 22  6  1  0
 22 23  1  0
  7 17  1  0
M  END
>  <generation_date>  (295) 
None

>  <inchikey>  (295) 
UCXOWRLLLIRRKC-UHFFFAOYSA-N

>  <ref_mols>  (295) 
cx0839e,cx0289a

>  <tags>  (295) 
['butcher: adenine', 'fragmenstein', 'select (DF) [arg144_pures]', 'arg144_pures', 'raw', 'butcher: arginine']

>  <ref_pdb>  (295) 
cx0270a

>  <alias>  (295) 
cx0839e-cx0289a

>  <submitter_name>  (295) 
None

>  <HIPPO ID>  (295) 
3936

>  <original ID>  (295) 
cx0839e-cx0289a

>  <method>  (295) 
None

>  <ref_url>  (295) 
None

>  <submitter_email>  (295) 
None

>  <original SMILES>  (295) 
CNc1cnc2ccc(NS(=O)(=O)c3ccc(N)cc3)cc2n1

$$$$
cx0864a-cx0289a
     RDKit          3D

 27 32  0  0  0  0  0  0  0  0999 V2000
   15.3130   10.2160   17.3940 C   0  0  0  0  0  0  0  0  0  0  0  0
   15.1260    9.7480   16.1240 C   0  0  0  0  0  0  0  0  0  0  0  0
   15.2190   10.8790   15.2940 C   0  0  0  0  0  0  0  0  0  0  0  0
   15.4600   11.9740   16.0280 N   0  0  0  0  0  0  0  0  0  0  0  0
   15.5100   11.5360   17.3100 N   0  0  0  0  0  0  0  0  0  0  0  0
   14.5210   12.1300   13.2490 C   0  0  0  0  0  0  0  0  0  0  0  0
   15.0560   10.9700   13.8350 C   0  0  2  0  0  0  0  0  0  0  0  0
   15.2870   10.0230   11.6590 C   0  0  0  0  0  0  0  0  0  0  0  0
   14.7590   11.1590   11.0970 C   0  0  0  0  0  0  0  0  0  0  0  0
   14.3650   12.2300   11.8760 C   0  0  0  0  0  0  0  0  0  0  0  0
   14.7060   11.0270    9.7260 O   0  0  0  0  0  0  0  0  0  0  0  0
   15.3990    9.8050    9.4380 C   0  0  0  0  0  0  0  0  0  0  0  0
   15.6090    9.1120   10.6750 C   0  0  0  0  0  0  0  0  0  0  0  0
   15.5700    8.2060   11.8770 C   0  0  0  0  0  0  0  0  0  0  0  0
   15.0800    9.9610   13.9720 C   0  0  2  0  0  0  0  0  0  0  0  0
   15.1200    8.5850   14.2240 C   0  0  1  0  0  0  0  0  0  0  0  0
   15.3590    7.7180   13.1550 C   0  0  0  0  0  0  0  0  0  0  0  0
   17.4570   10.4410    9.8920 N   0  0  0  0  0  0  0  0  0  0  0  0
   19.5990   11.2420   10.2070 N   0  0  0  0  0  0  0  0  0  0  0  0
   18.2970   11.4010   10.5030 C   0  0  0  0  0  0  0  0  0  0  0  0
   17.8290   12.4720   11.2820 C   0  0  0  0  0  0  0  0  0  0  0  0
   18.7560   13.3990   11.7330 C   0  0  0  0  0  0  0  0  0  0  0  0
   20.0890   13.2550   11.4150 C   0  0  0  0  0  0  0  0  0  0  0  0
   20.4630   12.1660   10.6590 C   0  0  0  0  0  0  0  0  0  0  0  0
   16.4280   10.1230    9.6650 O   0  0  0  0  0  0  0  0  0  0  0  0
   14.9419    8.7080   15.8165 N   0  0  0  0  0  0  0  0  0  0  0  0
   15.9425   10.0831   13.3003 O   0  0  0  0  0  0  0  0  0  0  0  0
  1  2  1  0
  1  5  2  0
  2  3  2  0
  3  7  1  0
  3  4  1  0
  4  5  1  0
  6 10  1  0
  7  6  1  6
  8  9  2  0
  8 13  1  0
  9 11  1  0
  9 10  1  0
 11 12  1  0
 12 13  2  0
 14 17  1  0
 15 16  1  0
 16 17  1  6
 13 14  1  0
 19 24  2  0
 19 20  1  0
 20 18  1  0
 20 21  2  0
 21 22  1  0
 22 23  2  0
 23 24  1  0
 25 12  1  0
 25 18  1  0
  2 26  1  0
 15 27  1  6
  7 15  1  0
 26 16  1  0
 27  8  1  0
M  END
>  <generation_date>  (296) 
None

>  <inchikey>  (296) 
HWTLYJYQSUYXNF-JJMSQDNMSA-N

>  <ref_mols>  (296) 
cx0289a,cx0864a

>  <tags>  (296) 
['butcher: adenine', 'fragmenstein', 'select (HA) [arg144_pures]', 'arg144_pures', 'raw', 'butcher: arginine']

>  <ref_pdb>  (296) 
cx0270a

>  <alias>  (296) 
cx0864a-cx0289a

>  <submitter_name>  (296) 
None

>  <HIPPO ID>  (296) 
3999

>  <original ID>  (296) 
cx0864a-cx0289a

>  <method>  (296) 
None

>  <ref_url>  (296) 
None

>  <submitter_email>  (296) 
None

>  <original SMILES>  (296) 
c1ccc(NOc2oc3c4c2CC[C@H]2Nc5cn[nH]c5[C@H](CC3)C2O4)nc1

$$$$
cx0864a-cx0692a
     RDKit          3D

 20 22  0  0  0  0  0  0  0  0999 V2000
   17.2202   12.5799   11.7487 O   0  0  0  0  0  0  0  0  0  0  0  0
   17.9528   11.7783   11.1711 C   0  0  0  0  0  0  0  0  0  0  0  0
   19.4285   12.1408   11.0108 C   0  0  0  0  0  0  0  0  0  0  0  0
   20.2059   11.1140   10.4226 O   0  0  0  0  0  0  0  0  0  0  0  0
   21.5969   11.4099   10.5310 C   0  0  0  0  0  0  0  0  0  0  0  0
   17.6197   10.5219   10.6496 N   0  0  0  0  0  0  0  0  0  0  0  0
   15.7008   10.5897   17.5448 C   0  0  0  0  0  0  0  0  0  0  0  0
   15.5247   10.0384   16.2641 C   0  0  0  0  0  0  0  0  0  0  0  0
   15.2613   11.1145   15.4367 C   0  0  0  0  0  0  0  0  0  0  0  0
   15.3025   12.2108   16.2615 N   0  0  0  0  0  0  0  0  0  0  0  0
   15.5674   11.9161   17.5446 N   0  0  0  0  0  0  0  0  0  0  0  0
   14.1840   12.1776   13.4390 C   0  0  0  0  0  0  0  0  0  0  0  0
   15.0307   11.1948   14.0006 C   0  0  0  0  0  0  0  0  0  0  0  0
   15.7106   10.3113   13.1565 C   0  0  0  0  0  0  0  0  0  0  0  0
   15.5357   10.4423   11.7926 C   0  0  0  0  0  0  0  0  0  0  0  0
   14.6353   11.3520   11.2632 C   0  0  0  0  0  0  0  0  0  0  0  0
   13.9778   12.2576   12.0558 C   0  0  0  0  0  0  0  0  0  0  0  0
   14.5911   11.2901    9.8982 O   0  0  0  0  0  0  0  0  0  0  0  0
   15.4092   10.1233    9.6413 C   0  0  0  0  0  0  0  0  0  0  0  0
   16.3288    9.8473   10.7738 N   0  0  0  0  0  0  0  0  0  0  0  0
  5  4  1  0
  4  3  1  0
  3  2  1  0
  2  1  2  0
  6  2  1  0
  7  8  1  0
  7 11  2  0
  8  9  2  0
  9 13  1  0
  9 10  1  0
 10 11  1  0
 12 17  2  0
 12 13  1  0
 13 14  2  0
 14 15  1  0
 15 16  2  0
 15 20  1  0
 16 18  1  0
 16 17  1  0
 18 19  1  0
 19 20  1  0
  6 20  1  0
M  END
>  <generation_date>  (297) 
None

>  <inchikey>  (297) 
RTAHAIAUMVJTBK-UHFFFAOYSA-N

>  <ref_mols>  (297) 
cx0864a,cx0692a

>  <tags>  (297) 
['butcher: adenine', 'fragmenstein', 'select (HA) [arg144_pures]', 'arg144_pures', 'raw', 'butcher: arginine']

>  <ref_pdb>  (297) 
cx0270a

>  <alias>  (297) 
cx0864a-cx0692a

>  <submitter_name>  (297) 
None

>  <HIPPO ID>  (297) 
4011

>  <original ID>  (297) 
cx0864a-cx0692a

>  <method>  (297) 
None

>  <ref_url>  (297) 
None

>  <submitter_email>  (297) 
None

>  <original SMILES>  (297) 
COCC(=O)NN1COc2ccc(-c3ccn[nH]3)cc21

$$$$
cx0864d-cx0289a
     RDKit          3D

 25 28  0  0  0  0  0  0  0  0999 V2000
   14.9878   11.5342   10.2798 O   0  0  0  0  0  0  0  0  0  0  0  0
   15.6499   10.2497   10.3451 S   0  0  0  0  0  6  0  0  0  0  0  0
   15.4117    9.2139    9.3656 O   0  0  0  0  0  0  0  0  0  0  0  0
   14.7246    7.9278   15.7546 N   0  0  0  0  0  0  0  0  0  0  0  0
   17.3379   10.4474   10.4778 N   0  0  0  0  0  0  0  0  0  0  0  0
   25.4405   13.9778   11.2549 C   0  0  0  0  0  0  0  0  0  0  0  0
   24.1531   13.9239   11.8167 C   0  0  0  0  0  0  0  0  0  0  0  0
   23.4234   13.0860   10.9975 C   0  0  0  0  0  0  0  0  0  0  0  0
   24.3259   12.6818   10.0305 N   0  0  0  0  0  0  0  0  0  0  0  0
   25.5565   13.1971   10.1862 N   0  0  0  0  0  0  0  0  0  0  0  0
   21.6363   11.5155   10.3404 C   0  0  0  0  0  0  0  0  0  0  0  0
   22.0233   12.6669   11.0428 C   0  0  0  0  0  0  0  0  0  0  0  0
   21.0452   13.3957   11.7517 C   0  0  0  0  0  0  0  0  0  0  0  0
   19.7263   12.9812   11.6711 C   0  0  0  0  0  0  0  0  0  0  0  0
   19.3537   11.9014   10.9000 C   0  0  0  0  0  0  0  0  0  0  0  0
   20.3005   11.1428   10.2583 C   0  0  0  0  0  0  0  0  0  0  0  0
   17.9645   11.7459   10.8534 N   0  0  0  0  0  0  0  0  0  0  0  0
   17.5579   12.6001   11.9696 C   0  0  0  0  0  0  0  0  0  0  0  0
   18.6377   13.5399   12.2964 O   0  0  0  0  0  0  0  0  0  0  0  0
   15.4009    8.1646   12.1206 C   0  0  0  0  0  0  0  0  0  0  0  0
   15.3306    9.5465   11.9425 C   0  0  0  0  0  0  0  0  0  0  0  0
   15.0068   10.3868   13.0087 C   0  0  0  0  0  0  0  0  0  0  0  0
   14.8411    9.8435   14.2817 C   0  0  0  0  0  0  0  0  0  0  0  0
   15.0022    8.4720   14.4977 C   0  0  0  0  0  0  0  0  0  0  0  0
   15.2167    7.6330   13.3983 C   0  0  0  0  0  0  0  0  0  0  0  0
  3  2  2  0
  2  1  2  0
  5  2  1  0
  6  7  1  0
  6 10  2  0
  7  8  2  0
  8 12  1  0
  8  9  1  0
  9 10  1  0
 11 16  2  0
 11 12  1  0
 12 13  2  0
 13 14  1  0
 14 15  2  0
 14 19  1  0
 15 17  1  0
 15 16  1  0
 17 18  1  0
 18 19  1  0
 20 25  2  0
 20 21  1  0
 21 22  2  0
 21  2  1  0
 22 23  1  0
 23 24  2  0
 24  4  1  0
 24 25  1  0
  5 17  1  0
M  END
>  <generation_date>  (298) 
None

>  <inchikey>  (298) 
VUFQTOXRHKYCQJ-UHFFFAOYSA-N

>  <ref_mols>  (298) 
cx0289a,cx0864d

>  <tags>  (298) 
['butcher: adenine', 'fragmenstein', 'select (HA) [arg144_pures]', 'arg144_pures', 'raw', 'butcher: arginine']

>  <ref_pdb>  (298) 
cx0270a

>  <alias>  (298) 
cx0864d-cx0289a

>  <submitter_name>  (298) 
None

>  <HIPPO ID>  (298) 
4144

>  <original ID>  (298) 
cx0864d-cx0289a

>  <method>  (298) 
None

>  <ref_url>  (298) 
None

>  <submitter_email>  (298) 
None

>  <original SMILES>  (298) 
Nc1ccc(S(=O)(=O)NN2COc3cc(-c4ccn[nH]4)ccc32)cc1

$$$$
cx0864d-cx0399f
     RDKit          3D

 18 20  0  0  0  0  0  0  0  0999 V2000
   22.1401   15.7118   11.8046 O   0  0  0  0  0  0  0  0  0  0  0  0
   21.5173   14.8664   12.4302 C   0  0  0  0  0  0  0  0  0  0  0  0
   21.3497   14.9321   13.7937 N   0  0  0  0  0  0  0  0  0  0  0  0
   21.9911   15.9527   14.5765 C   0  0  0  0  0  0  0  0  0  0  0  0
   24.4527   13.6999    8.9975 C   0  0  0  0  0  0  0  0  0  0  0  0
   23.2206   14.0706    9.4768 C   0  0  0  0  0  0  0  0  0  0  0  0
   22.8235   13.0359   10.3557 C   0  0  0  0  0  0  0  0  0  0  0  0
   23.7747   12.1010   10.4457 N   0  0  0  0  0  0  0  0  0  0  0  0
   24.6867   12.4693    9.5246 N   0  0  0  0  0  0  0  0  0  0  0  0
   20.8191   11.6619   10.4700 C   0  0  0  0  0  0  0  0  0  0  0  0
   21.5024   12.8203   10.9246 C   0  0  0  0  0  0  0  0  0  0  0  0
   20.8425   13.7190   11.7741 C   0  0  0  0  0  0  0  0  0  0  0  0
   19.4911   13.4913   12.0214 C   0  0  0  0  0  0  0  0  0  0  0  0
   18.8244   12.4102   11.4869 C   0  0  0  0  0  0  0  0  0  0  0  0
   19.4629   11.4666   10.7222 C   0  0  0  0  0  0  0  0  0  0  0  0
   17.5102   12.3692   11.8340 O   0  0  0  0  0  0  0  0  0  0  0  0
   17.4007   13.5590   12.6304 C   0  0  0  0  0  0  0  0  0  0  0  0
   18.6469   14.2653   12.7664 O   0  0  0  0  0  0  0  0  0  0  0  0
  4  3  1  0
  3  2  1  0
  2  1  2  0
  5  6  2  0
  5  9  1  0
  6  7  1  0
  7 11  1  0
  7  8  2  0
  8  9  1  0
 10 15  2  0
 10 11  1  0
 11 12  2  0
 12 13  1  0
 13 14  2  0
 13 18  1  0
 14 16  1  0
 14 15  1  0
 16 17  1  0
 17 18  1  0
  2 12  1  0
M  END
>  <generation_date>  (299) 
None

>  <inchikey>  (299) 
FCNMMRVSBYHGGR-UHFFFAOYSA-N

>  <ref_mols>  (299) 
cx0864d,cx0399f

>  <tags>  (299) 
['butcher: adenine', 'fragmenstein', 'select (HA) [arg144_pures]', 'arg144_pures', 'raw', 'butcher: arginine']

>  <ref_pdb>  (299) 
cx0270a

>  <alias>  (299) 
cx0864d-cx0399f

>  <submitter_name>  (299) 
None

>  <HIPPO ID>  (299) 
4150

>  <original ID>  (299) 
cx0864d-cx0399f

>  <method>  (299) 
None

>  <ref_url>  (299) 
None

>  <submitter_email>  (299) 
None

>  <original SMILES>  (299) 
CNC(=O)c1c(-c2cc[nH]n2)ccc2c1OCO2

$$$$
cx0864d-cx0692a
     RDKit          3D

 22 25  0  0  0  0  0  0  0  0999 V2000
   16.2427   13.3882   11.9007 O   0  0  0  0  0  0  0  0  0  0  0  0
   25.2261   13.8626   10.9173 C   0  0  0  0  0  0  0  0  0  0  0  0
   23.9812   13.8286   11.5680 C   0  0  0  0  0  0  0  0  0  0  0  0
   23.1642   13.0466   10.7743 C   0  0  0  0  0  0  0  0  0  0  0  0
   23.9884   12.6245    9.7478 N   0  0  0  0  0  0  0  0  0  0  0  0
   25.2342   13.1253    9.8126 N   0  0  0  0  0  0  0  0  0  0  0  0
   21.2708   11.5113   10.3091 C   0  0  0  0  0  0  0  0  0  0  0  0
   21.7548   12.6804   10.9174 C   0  0  0  0  0  0  0  0  0  0  0  0
   20.8565   13.4820   11.6483 C   0  0  0  0  0  0  0  0  0  0  0  0
   19.5373   13.0715   11.7580 C   0  0  0  0  0  0  0  0  0  0  0  0
   19.0767   11.9185   11.1610 C   0  0  0  0  0  0  0  0  0  0  0  0
   19.9221   11.1604   10.3895 C   0  0  0  0  0  0  0  0  0  0  0  0
   17.7393   11.6309   11.4932 N   0  0  0  0  0  0  0  0  0  0  0  0
   17.4264   12.7881   12.3536 C   0  0  1  0  0  0  0  0  0  0  0  0
   18.5348   13.7219   12.4249 O   0  0  0  0  0  0  0  0  0  0  0  0
   16.8590   11.1351   10.5560 N   0  0  0  0  0  0  0  0  0  0  0  0
   16.0311   10.0115   10.7696 C   0  0  0  0  0  0  0  0  0  0  0  0
   15.7379    9.5181   12.0408 C   0  0  0  0  0  0  0  0  0  0  0  0
   14.9412    8.3822   12.1902 C   0  0  0  0  0  0  0  0  0  0  0  0
   14.3788    7.7696   11.0722 C   0  0  0  0  0  0  0  0  0  0  0  0
   14.5735    8.3197    9.8119 C   0  0  0  0  0  0  0  0  0  0  0  0
   15.3984    9.4308    9.6635 C   0  0  0  0  0  0  0  0  0  0  0  0
  2  3  1  0
  2  6  2  0
  3  4  2  0
  4  8  1  0
  4  5  1  0
  5  6  1  0
  7 12  2  0
  7  8  1  0
  8  9  2  0
  9 10  1  0
 10 11  2  0
 10 15  1  0
 11 13  1  0
 11 12  1  0
 13 14  1  0
 14 15  1  0
 14  1  1  6
 17 16  1  0
 17 22  1  0
 17 18  2  0
 18 19  1  0
 19 20  2  0
 20 21  1  0
 21 22  2  0
 13 16  1  0
M  END
>  <generation_date>  (300) 
None

>  <inchikey>  (300) 
PPOABDMMRXXBHZ-MRXNPFEDSA-N

>  <ref_mols>  (300) 
cx0692a,cx0864d

>  <tags>  (300) 
['butcher: adenine', 'fragmenstein', 'select (HA) [arg144_pures]', 'select (DF) [arg144_pures]', 'arg144_pures', 'select (JA) [arg144_pures]', 'raw', 'butcher: arginine']

>  <ref_pdb>  (300) 
cx0270a

>  <alias>  (300) 
cx0864d-cx0692a

>  <submitter_name>  (300) 
None

>  <HIPPO ID>  (300) 
4156

>  <original ID>  (300) 
cx0864d-cx0692a

>  <method>  (300) 
None

>  <ref_url>  (300) 
None

>  <submitter_email>  (300) 
None

>  <original SMILES>  (300) 
O[C@@H]1Oc2cc(-c3ccn[nH]3)ccc2N1Nc1ccccc1

$$$$
cx0864d-cx0969b
     RDKit          3D

 16 18  0  0  0  0  0  0  0  0999 V2000
   17.4474   14.8790   14.3337 O   0  0  0  0  0  0  0  0  0  0  0  0
   18.5516   14.9056   13.4443 C   0  0  0  0  0  0  0  0  0  0  0  0
   25.0212   13.7525   10.6839 C   0  0  0  0  0  0  0  0  0  0  0  0
   23.8303   13.7333   11.4288 C   0  0  0  0  0  0  0  0  0  0  0  0
   22.9392   12.9759   10.6920 C   0  0  0  0  0  0  0  0  0  0  0  0
   23.6749   12.5419    9.6049 N   0  0  0  0  0  0  0  0  0  0  0  0
   24.9247   13.0381    9.5685 N   0  0  0  0  0  0  0  0  0  0  0  0
   20.9672   11.4808   10.4109 C   0  0  0  0  0  0  0  0  0  0  0  0
   21.5250   12.6682   10.9181 C   0  0  0  0  0  0  0  0  0  0  0  0
   20.6894   13.5779   11.6068 C   0  0  0  0  0  0  0  0  0  0  0  0
   19.3394   13.2936   11.7559 C   0  0  0  0  0  0  0  0  0  0  0  0
   18.8291   12.1304   11.2110 C   0  0  0  0  0  0  0  0  0  0  0  0
   19.5995   11.2290   10.5217 C   0  0  0  0  0  0  0  0  0  0  0  0
   17.4918   11.9752   11.4591 O   0  0  0  0  0  0  0  0  0  0  0  0
   17.2101   13.0787   12.3521 C   0  0  0  0  0  0  0  0  0  0  0  0
   18.3169   14.0278   12.3416 N   0  0  0  0  0  0  0  0  0  0  0  0
  2  1  1  0
  3  4  1  0
  3  7  2  0
  4  5  2  0
  5  9  1  0
  5  6  1  0
  6  7  1  0
  8 13  2  0
  8  9  1  0
  9 10  2  0
 10 11  1  0
 11 12  2  0
 11 16  1  0
 12 14  1  0
 12 13  1  0
 14 15  1  0
 15 16  1  0
  2 16  1  0
M  END
>  <generation_date>  (301) 
None

>  <inchikey>  (301) 
CVNPYWIROGTFDL-UHFFFAOYSA-N

>  <ref_mols>  (301) 
cx0864d,cx0969b

>  <tags>  (301) 
['butcher: adenine', 'fragmenstein', 'select (HA) [arg144_pures]', 'arg144_pures', 'raw', 'butcher: arginine']

>  <ref_pdb>  (301) 
cx0270a

>  <alias>  (301) 
cx0864d-cx0969b

>  <submitter_name>  (301) 
None

>  <HIPPO ID>  (301) 
4169

>  <original ID>  (301) 
cx0864d-cx0969b

>  <method>  (301) 
None

>  <ref_url>  (301) 
None

>  <submitter_email>  (301) 
None

>  <original SMILES>  (301) 
OCN1COc2ccc(-c3ccn[nH]3)cc21

$$$$
cx0864d-cx1116c
     RDKit          3D

 15 17  0  0  0  0  0  0  0  0999 V2000
   21.7786   14.2164   12.6400 N   0  0  0  0  0  0  0  0  0  0  0  0
   25.1403   13.6162    9.8760 C   0  0  0  0  0  0  0  0  0  0  0  0
   24.1677   13.5562   10.8856 C   0  0  0  0  0  0  0  0  0  0  0  0
   23.1458   12.7531   10.4019 C   0  0  0  0  0  0  0  0  0  0  0  0
   23.6298   12.3313    9.1725 N   0  0  0  0  0  0  0  0  0  0  0  0
   24.8027   12.8866    8.8215 N   0  0  0  0  0  0  0  0  0  0  0  0
   21.0349   11.4106   10.3070 C   0  0  0  0  0  0  0  0  0  0  0  0
   21.7753   12.4620   10.8896 C   0  0  0  0  0  0  0  0  0  0  0  0
   21.1143   13.2603   11.8506 C   0  0  0  0  0  0  0  0  0  0  0  0
   19.7265   13.1592   11.9501 C   0  0  0  0  0  0  0  0  0  0  0  0
   19.0151   12.1975   11.2869 C   0  0  0  0  0  0  0  0  0  0  0  0
   19.6499   11.2785   10.4952 C   0  0  0  0  0  0  0  0  0  0  0  0
   17.6866   12.2332   11.5662 O   0  0  0  0  0  0  0  0  0  0  0  0
   17.6303   13.3535   12.4664 C   0  0  0  0  0  0  0  0  0  0  0  0
   18.9201   13.9313   12.7404 O   0  0  0  0  0  0  0  0  0  0  0  0
  2  3  1  0
  2  6  2  0
  3  4  2  0
  4  8  1  0
  4  5  1  0
  5  6  1  0
  7 12  2  0
  7  8  1  0
  8  9  2  0
  9 10  1  0
 10 11  2  0
 10 15  1  0
 11 13  1  0
 11 12  1  0
 13 14  1  0
 14 15  1  0
  1  9  1  0
M  END
>  <generation_date>  (302) 
None

>  <inchikey>  (302) 
NXHHOOOYMWASMZ-UHFFFAOYSA-N

>  <ref_mols>  (302) 
cx1116c,cx0864d

>  <tags>  (302) 
['butcher: adenine', 'fragmenstein', 'select (HA) [arg144_pures]', 'arg144_pures', 'raw', 'butcher: arginine']

>  <ref_pdb>  (302) 
cx0270a

>  <alias>  (302) 
cx0864d-cx1116c

>  <submitter_name>  (302) 
None

>  <HIPPO ID>  (302) 
4174

>  <original ID>  (302) 
cx0864d-cx1116c

>  <method>  (302) 
None

>  <ref_url>  (302) 
None

>  <submitter_email>  (302) 
None

>  <original SMILES>  (302) 
Nc1c(-c2ccn[nH]2)ccc2c1OCO2

$$$$
cx0864d-cx1271f
     RDKit          3D

 15 17  0  0  0  0  0  0  0  0999 V2000
   19.1903   15.4867   13.2727 N   0  0  0  0  0  0  0  0  0  0  0  0
   25.1714   13.6758   10.2172 C   0  0  0  0  0  0  0  0  0  0  0  0
   24.1067   13.6444   11.1310 C   0  0  0  0  0  0  0  0  0  0  0  0
   23.1024   12.9197   10.5142 C   0  0  0  0  0  0  0  0  0  0  0  0
   23.6718   12.4873    9.3318 N   0  0  0  0  0  0  0  0  0  0  0  0
   24.8987   12.9935    9.1105 N   0  0  0  0  0  0  0  0  0  0  0  0
   20.9794   11.5920   10.4112 C   0  0  0  0  0  0  0  0  0  0  0  0
   21.7117   12.6856   10.9113 C   0  0  0  0  0  0  0  0  0  0  0  0
   21.0686   13.5952   11.7743 C   0  0  0  0  0  0  0  0  0  0  0  0
   19.7239   13.4310   12.0633 C   0  0  0  0  0  0  0  0  0  0  0  0
   19.0095   12.4076   11.4658 C   0  0  0  0  0  0  0  0  0  0  0  0
   19.6069   11.4669   10.6571 C   0  0  0  0  0  0  0  0  0  0  0  0
   17.6859   12.4174   11.8203 O   0  0  0  0  0  0  0  0  0  0  0  0
   17.5791   13.6193   12.6284 C   0  0  0  0  0  0  0  0  0  0  0  0
   18.9121   14.1444   12.9680 N   0  0  0  0  0  0  0  0  0  0  0  0
  2  3  1  0
  2  6  2  0
  3  4  2  0
  4  8  1  0
  4  5  1  0
  5  6  1  0
  7 12  2  0
  7  8  1  0
  8  9  2  0
  9 10  1  0
 10 11  2  0
 10 15  1  0
 11 13  1  0
 11 12  1  0
 13 14  1  0
 14 15  1  0
  1 15  1  0
M  END
>  <generation_date>  (303) 
None

>  <inchikey>  (303) 
ZBDWVIGDKQMEDH-UHFFFAOYSA-N

>  <ref_mols>  (303) 
cx1271f,cx0864d

>  <tags>  (303) 
['butcher: adenine', 'fragmenstein', 'select (HA) [arg144_pures]', 'arg144_pures', 'raw', 'butcher: arginine']

>  <ref_pdb>  (303) 
cx0270a

>  <alias>  (303) 
cx0864d-cx1271f

>  <submitter_name>  (303) 
None

>  <HIPPO ID>  (303) 
4182

>  <original ID>  (303) 
cx0864d-cx1271f

>  <method>  (303) 
None

>  <ref_url>  (303) 
None

>  <submitter_email>  (303) 
None

>  <original SMILES>  (303) 
NN1COc2ccc(-c3ccn[nH]3)cc21

$$$$
cx0864d-cx1305b
     RDKit          3D

 15 17  0  0  0  0  0  0  0  0999 V2000
   21.7660   10.9019    9.8965 O   0  0  0  0  0  0  0  0  0  0  0  0
   25.2151   13.8272   11.0350 C   0  0  0  0  0  0  0  0  0  0  0  0
   23.9901   13.9334   11.7155 C   0  0  0  0  0  0  0  0  0  0  0  0
   23.1014   13.1374   11.0181 C   0  0  0  0  0  0  0  0  0  0  0  0
   23.8776   12.5401   10.0431 N   0  0  0  0  0  0  0  0  0  0  0  0
   25.1507   12.9762   10.0177 N   0  0  0  0  0  0  0  0  0  0  0  0
   21.0147   11.7887   10.6080 C   0  0  0  0  0  0  0  0  0  0  0  0
   21.6616   12.8989   11.1927 C   0  0  0  0  0  0  0  0  0  0  0  0
   20.8789   13.7987   11.9345 C   0  0  0  0  0  0  0  0  0  0  0  0
   19.5220   13.5602   12.0492 C   0  0  0  0  0  0  0  0  0  0  0  0
   18.9197   12.4802   11.4536 C   0  0  0  0  0  0  0  0  0  0  0  0
   19.6381   11.5725   10.7170 C   0  0  0  0  0  0  0  0  0  0  0  0
   17.5871   12.4134   11.7141 O   0  0  0  0  0  0  0  0  0  0  0  0
   17.4210   13.5610   12.5681 C   0  0  0  0  0  0  0  0  0  0  0  0
   18.6326   14.3216   12.7434 O   0  0  0  0  0  0  0  0  0  0  0  0
  2  3  1  0
  2  6  2  0
  3  4  2  0
  4  8  1  0
  4  5  1  0
  5  6  1  0
  7 12  2  0
  7  8  1  0
  8  9  2  0
  9 10  1  0
 10 11  2  0
 10 15  1  0
 11 13  1  0
 11 12  1  0
 13 14  1  0
 14 15  1  0
  1  7  1  0
M  END
>  <generation_date>  (304) 
None

>  <inchikey>  (304) 
DETJXFSIQJPJAJ-UHFFFAOYSA-N

>  <ref_mols>  (304) 
cx0864d,cx1305b

>  <tags>  (304) 
['butcher: adenine', 'fragmenstein', 'select (HA) [arg144_pures]', 'arg144_pures', 'raw', 'butcher: arginine']

>  <ref_pdb>  (304) 
cx0270a

>  <alias>  (304) 
cx0864d-cx1305b

>  <submitter_name>  (304) 
None

>  <HIPPO ID>  (304) 
4190

>  <original ID>  (304) 
cx0864d-cx1305b

>  <method>  (304) 
None

>  <ref_url>  (304) 
None

>  <submitter_email>  (304) 
None

>  <original SMILES>  (304) 
Oc1cc2c(cc1-c1ccn[nH]1)OCO2

$$$$
cx0864d-cx1431d
     RDKit          3D

 15 17  0  0  0  0  0  0  0  0999 V2000
   18.6598   14.8277   13.5313 N   0  0  0  0  0  0  0  0  0  0  0  0
   24.9915   13.7379   10.6487 C   0  0  0  0  0  0  0  0  0  0  0  0
   23.8067   13.7275   11.4031 C   0  0  0  0  0  0  0  0  0  0  0  0
   22.9081   12.9645   10.6810 C   0  0  0  0  0  0  0  0  0  0  0  0
   23.6339   12.5205    9.5915 N   0  0  0  0  0  0  0  0  0  0  0  0
   24.8851   13.0119    9.5416 N   0  0  0  0  0  0  0  0  0  0  0  0
   20.9150   11.4871   10.4215 C   0  0  0  0  0  0  0  0  0  0  0  0
   21.4934   12.6691   10.9211 C   0  0  0  0  0  0  0  0  0  0  0  0
   20.6758   13.5844   11.6188 C   0  0  0  0  0  0  0  0  0  0  0  0
   19.3224   13.3124   11.7743 C   0  0  0  0  0  0  0  0  0  0  0  0
   18.7865   12.1565   11.2430 C   0  0  0  0  0  0  0  0  0  0  0  0
   19.5442   11.2461   10.5494 C   0  0  0  0  0  0  0  0  0  0  0  0
   17.4552   12.0105   11.5174 O   0  0  0  0  0  0  0  0  0  0  0  0
   17.1779   13.1419   12.3724 C   0  0  0  0  0  0  0  0  0  0  0  0
   18.3172   14.0823   12.4011 N   0  0  0  0  0  0  0  0  0  0  0  0
  2  3  1  0
  2  6  2  0
  3  4  2  0
  4  8  1  0
  4  5  1  0
  5  6  1  0
  7 12  2  0
  7  8  1  0
  8  9  2  0
  9 10  1  0
 10 11  2  0
 10 15  1  0
 11 13  1  0
 11 12  1  0
 13 14  1  0
 14 15  1  0
  1 15  1  0
M  END
>  <generation_date>  (305) 
None

>  <inchikey>  (305) 
ZBDWVIGDKQMEDH-UHFFFAOYSA-N

>  <ref_mols>  (305) 
cx1431d,cx0864d

>  <tags>  (305) 
['butcher: adenine', 'fragmenstein', 'select (HA) [arg144_pures]', 'arg144_pures', 'raw', 'butcher: arginine']

>  <ref_pdb>  (305) 
cx0270a

>  <alias>  (305) 
cx0864d-cx1431d

>  <submitter_name>  (305) 
None

>  <HIPPO ID>  (305) 
4203

>  <original ID>  (305) 
cx0864d-cx1431d

>  <method>  (305) 
None

>  <ref_url>  (305) 
None

>  <submitter_email>  (305) 
None

>  <original SMILES>  (305) 
NN1COc2ccc(-c3ccn[nH]3)cc21

$$$$
cx0892a-cx0270a
     RDKit          3D

 28 31  0  0  0  0  0  0  0  0999 V2000
   15.0915    7.6121   11.5565 O   0  0  0  0  0  0  0  0  0  0  0  0
   14.7945    8.5248   12.3255 C   0  0  0  0  0  0  0  0  0  0  0  0
   16.1222    9.8423    9.9427 C   0  0  0  0  0  0  0  0  0  0  0  0
   14.5807    8.2885   13.6610 N   0  0  0  0  0  0  0  0  0  0  0  0
   14.4435    6.9395   14.1587 C   0  0  0  0  0  0  0  0  0  0  0  0
   16.9345   10.6247   12.6144 O   0  0  0  0  0  0  0  0  0  0  0  0
   17.3969   11.1311   11.6004 C   0  0  0  0  0  0  0  0  0  0  0  0
   17.2758   10.6365   10.3228 N   0  0  0  0  0  0  0  0  0  0  0  0
   18.7283   15.6038   13.1820 C   0  0  0  0  0  0  0  0  0  0  0  0
   14.1357   11.0478   12.5156 C   0  0  0  0  0  0  0  0  0  0  0  0
   14.0678   12.0324   11.5059 C   0  0  0  0  0  0  0  0  0  0  0  0
   14.4950   11.5757   10.3264 N   0  0  0  0  0  0  0  0  0  0  0  0
   14.9230   10.3158   10.6163 N   0  0  0  0  0  0  0  0  0  0  0  0
   14.5821    9.8901   11.8857 C   0  0  0  0  0  0  0  0  0  0  0  0
   11.7442    7.0048   14.8789 S   0  0  0  0  0  0  0  0  0  0  0  0
   10.6045    6.1059   13.9740 C   0  0  0  0  0  0  0  0  0  0  0  0
   11.1968    5.4021   12.9504 C   0  0  0  0  0  0  0  0  0  0  0  0
   12.6046    5.6147   12.9026 C   0  0  0  0  0  0  0  0  0  0  0  0
   13.0447    6.4677   13.8973 C   0  0  0  0  0  0  0  0  0  0  0  0
   18.1496   12.3517   11.7153 C   0  0  0  0  0  0  0  0  0  0  0  0
   17.7227   13.4608   12.4197 C   0  0  0  0  0  0  0  0  0  0  0  0
   18.7634   14.3429   12.4772 N   0  0  0  0  0  0  0  0  0  0  0  0
   19.8594   13.8290   11.8164 C   0  0  0  0  0  0  0  0  0  0  0  0
   19.4938   12.5761   11.3222 C   0  0  0  0  0  0  0  0  0  0  0  0
   20.4585   11.7840   10.6707 C   0  0  0  0  0  0  0  0  0  0  0  0
   21.1547   14.3337   11.6471 C   0  0  0  0  0  0  0  0  0  0  0  0
   22.0903   13.5351   10.9802 C   0  0  0  0  0  0  0  0  0  0  0  0
   21.7533   12.2733   10.5049 C   0  0  0  0  0  0  0  0  0  0  0  0
  2  1  2  0
  4  2  1  0
  5  4  1  0
  8  7  1  0
  7  6  2  0
  8  3  1  0
 10 11  1  0
 10 14  2  0
 11 12  2  0
 12 13  1  0
 13  3  1  0
 13 14  1  0
 14  2  1  0
 15 16  1  0
 15 19  1  0
 16 17  2  0
 17 18  1  0
 18 19  2  0
 19  5  1  0
 20  7  1  0
 20 21  2  0
 20 24  1  0
 21 22  1  0
 22  9  1  0
 22 23  1  0
 23 26  1  0
 23 24  2  0
 24 25  1  0
 25 28  2  0
 26 27  2  0
 27 28  1  0
M  END
>  <generation_date>  (306) 
None

>  <inchikey>  (306) 
NHWBBILHZVHSMM-UHFFFAOYSA-N

>  <ref_mols>  (306) 
cx0892a,cx0270a

>  <tags>  (306) 
['butcher: adenine', 'butcher: phosphate', 'fragmenstein', 'select (HA) [arg144_pures]', 'select (DF) [arg144_pures]', 'arg144_pures', 'raw', 'butcher: arginine']

>  <ref_pdb>  (306) 
cx0270a

>  <alias>  (306) 
cx0892a-cx0270a

>  <submitter_name>  (306) 
None

>  <HIPPO ID>  (306) 
4213

>  <original ID>  (306) 
cx0892a-cx0270a

>  <method>  (306) 
None

>  <ref_url>  (306) 
None

>  <submitter_email>  (306) 
None

>  <original SMILES>  (306) 
Cn1cc(C(=O)NCn2nccc2C(=O)NCc2cccs2)c2ccccc21

$$$$
cx1260a-cx0270a
     RDKit          3D

 15 16  0  0  0  0  0  0  0  0999 V2000
   22.8678   12.3424   10.4483 N   0  0  0  0  0  0  0  0  0  0  0  0
   15.7126   10.9682   12.6167 O   0  0  0  0  0  0  0  0  0  0  0  0
   16.4357   11.3166   11.6878 C   0  0  0  0  0  0  0  0  0  0  0  0
   16.3979   10.7130   10.4465 N   0  0  0  0  0  0  0  0  0  0  0  0
   15.5177    9.6069   10.1566 C   0  0  0  0  0  0  0  0  0  0  0  0
   21.5056   12.4206   10.7174 C   0  0  0  0  0  0  0  0  0  0  0  0
   20.9636   13.4818   11.4401 C   0  0  0  0  0  0  0  0  0  0  0  0
   19.6047   13.5061   11.8161 C   0  0  0  0  0  0  0  0  0  0  0  0
   18.7510   12.4256   11.4708 C   0  0  0  0  0  0  0  0  0  0  0  0
   19.3405   11.3481   10.7838 C   0  0  0  0  0  0  0  0  0  0  0  0
   20.6943   11.3317   10.4533 C   0  0  0  0  0  0  0  0  0  0  0  0
   19.1005   14.5809   12.5648 C   0  0  0  0  0  0  0  0  0  0  0  0
   17.3956   12.4533   11.8994 C   0  0  0  0  0  0  0  0  0  0  0  0
   16.9260   13.5391   12.6597 C   0  0  0  0  0  0  0  0  0  0  0  0
   17.7714   14.6002   12.9834 C   0  0  0  0  0  0  0  0  0  0  0  0
  5  4  1  0
  4  3  1  0
  3  2  2  0
  6  1  1  0
  6 11  2  0
  6  7  1  0
  7  8  2  0
  8 12  1  0
  8  9  1  0
  9 10  2  0
  9 13  1  0
 10 11  1  0
 12 15  2  0
 13 14  2  0
 14 15  1  0
  3 13  1  0
M  END
>  <generation_date>  (307) 
None

>  <inchikey>  (307) 
TUFPTLPAEQNWJN-UHFFFAOYSA-N

>  <ref_mols>  (307) 
cx1260a,cx0270a

>  <tags>  (307) 
['butcher: adenine', 'fragmenstein', 'select (HA) [arg144_pures]', 'select (DF) [arg144_pures]', 'arg144_pures', 'raw', 'butcher: arginine']

>  <ref_pdb>  (307) 
cx0270a

>  <alias>  (307) 
cx1260a-cx0270a

>  <submitter_name>  (307) 
None

>  <HIPPO ID>  (307) 
4281

>  <original ID>  (307) 
cx1260a-cx0270a

>  <method>  (307) 
None

>  <ref_url>  (307) 
None

>  <submitter_email>  (307) 
None

>  <original SMILES>  (307) 
CNC(=O)c1cccc2cc(N)ccc12

$$$$
cx1260a-cx0399f
     RDKit          3D

 17 19  0  0  0  0  0  0  0  0999 V2000
   23.2349   14.0718   12.9939 O   0  0  0  0  0  0  0  0  0  0  0  0
   22.4448   14.8256   12.4421 C   0  0  0  0  0  0  0  0  0  0  0  0
   22.1146   16.0695   12.9628 N   0  0  0  0  0  0  0  0  0  0  0  0
   22.3974   16.3440   14.3501 C   0  0  0  0  0  0  0  0  0  0  0  0
   20.9237   12.3868   10.7473 C   0  0  0  0  0  0  0  0  0  0  0  0
   20.6160   13.5859   11.2537 C   0  0  0  0  0  0  0  0  0  0  0  0
   19.3270   13.8086   11.9103 C   0  0  0  0  0  0  0  0  0  0  0  0
   18.3533   12.8018   11.8771 C   0  0  0  0  0  0  0  0  0  0  0  0
   18.5647   11.5524   11.0620 C   0  0  0  0  0  0  0  0  0  0  0  0
   20.0244   11.2142   10.7523 C   0  0  0  0  0  0  0  0  0  0  0  0
   18.9842   14.9785   12.5891 C   0  0  0  0  0  0  0  0  0  0  0  0
   17.1376   12.9087   12.4805 N   0  0  0  0  0  0  0  0  0  0  0  0
   16.8652   14.0510   13.1381 C   0  0  0  0  0  0  0  0  0  0  0  0
   17.7481   15.1061   13.2178 C   0  0  0  0  0  0  0  0  0  0  0  0
   21.7624   14.5317   11.1058 C   0  0  2  0  0  0  0  0  0  0  0  0
   22.3340   12.2991   10.2647 C   0  0  0  0  0  0  0  0  0  0  0  0
   22.7112   13.7709   10.1586 C   0  0  0  0  0  0  0  0  0  0  0  0
  4  3  1  0
  3  2  1  0
  2  1  2  0
  5 10  1  0
  5  6  2  0
  6  7  1  0
  7 11  2  0
  7  8  1  0
  8  9  1  0
  8 12  2  0
  9 10  1  0
 11 14  1  0
 12 13  1  0
 13 14  2  0
 15  2  1  1
 15 17  1  0
 16 17  1  0
  6 15  1  0
  5 16  1  0
M  END
>  <generation_date>  (308) 
None

>  <inchikey>  (308) 
JSSRKODIZZNJHB-NSHDSACASA-N

>  <ref_mols>  (308) 
cx1260a,cx0399f

>  <tags>  (308) 
['butcher: adenine', 'fragmenstein', 'select (DF) [arg144_pures]', 'arg144_pures', 'raw', 'butcher: arginine']

>  <ref_pdb>  (308) 
cx0270a

>  <alias>  (308) 
cx1260a-cx0399f

>  <submitter_name>  (308) 
None

>  <HIPPO ID>  (308) 
4288

>  <original ID>  (308) 
cx1260a-cx0399f

>  <method>  (308) 
None

>  <ref_url>  (308) 
None

>  <submitter_email>  (308) 
None

>  <original SMILES>  (308) 
CNC(=O)[C@H]1CCC2=C1c1cccnc1CC2

$$$$
cx1260a-cx0935a
     RDKit          3D

 22 25  0  0  0  0  0  0  0  0999 V2000
   22.1980   11.6880    9.9810 N   0  0  0  0  0  0  0  0  0  0  0  0
   17.8720   11.8690   11.2020 C   0  0  0  0  0  0  0  0  0  0  0  0
   17.4710   10.7850   10.5020 N   0  0  0  0  0  0  0  0  0  0  0  0
   12.8470    7.7430   10.9360 O   0  0  0  0  0  0  0  0  0  0  0  0
   21.0480   12.0860   10.5930 C   0  0  0  0  0  0  0  0  0  0  0  0
   21.0040   13.2670   11.3190 C   0  0  0  0  0  0  0  0  0  0  0  0
   19.8000   13.7100   11.9170 C   0  0  0  0  0  0  0  0  0  0  0  0
   18.6370   12.9190   11.7800 C   0  0  0  0  0  0  0  0  0  0  0  0
   18.7080   11.7120   11.0500 C   0  0  0  0  0  0  0  0  0  0  0  0
   19.8780   11.3200   10.4710 C   0  0  0  0  0  0  0  0  0  0  0  0
   19.6850   14.9340   12.6080 C   0  0  0  0  0  0  0  0  0  0  0  0
   17.4300   13.3120   12.3010 C   0  0  0  0  0  0  0  0  0  0  0  0
   17.3850   14.4760   12.9310 C   0  0  0  0  0  0  0  0  0  0  0  0
   18.4770   15.3140   13.1080 C   0  0  0  0  0  0  0  0  0  0  0  0
   16.2330   10.1070   10.6000 C   0  0  0  0  0  0  0  0  0  0  0  0
   15.5130   10.0820   11.7900 C   0  0  0  0  0  0  0  0  0  0  0  0
   14.3730    9.3070   11.9020 C   0  0  0  0  0  0  0  0  0  0  0  0
   13.9340    8.5590   10.8180 C   0  0  0  0  0  0  0  0  0  0  0  0
   14.6260    8.6130    9.6170 C   0  0  0  0  0  0  0  0  0  0  0  0
   15.7720    9.3820    9.5120 C   0  0  0  0  0  0  0  0  0  0  0  0
   17.6510   12.5905   11.7515 C   0  0  0  0  0  0  0  0  0  0  0  0
   18.2900   11.7905   11.1260 C   0  0  0  0  0  0  0  0  0  0  0  0
  3  2  1  0
  5  1  1  0
  5 10  2  0
  5  6  1  0
  6  7  2  0
  7 11  1  0
  7  8  1  0
  8  9  2  0
  8 12  1  0
  9 10  1  0
 11 14  2  0
 12 13  2  0
 13 14  1  0
 15  3  1  0
 15 20  1  0
 15 16  2  0
 16 17  1  0
 17 18  2  0
 18 19  1  0
 18  4  1  0
 19 20  2  0
  2 21  1  0
 12 21  1  0
  2 22  1  0
  9 22  1  0
M  END
>  <generation_date>  (309) 
None

>  <inchikey>  (309) 
VQIBYMODFAYWEL-UHFFFAOYSA-N

>  <ref_mols>  (309) 
cx1260a,cx0935a

>  <tags>  (309) 
['butcher: adenine', 'fragmenstein', 'select (HA) [arg144_pures]', 'arg144_pures', 'raw', 'butcher: arginine']

>  <ref_pdb>  (309) 
cx0270a

>  <alias>  (309) 
cx1260a-cx0935a

>  <submitter_name>  (309) 
None

>  <HIPPO ID>  (309) 
4302

>  <original ID>  (309) 
cx1260a-cx0935a

>  <method>  (309) 
None

>  <ref_url>  (309) 
None

>  <submitter_email>  (309) 
None

>  <original SMILES>  (309) 
Nc1cc2c3c(cccc3c1)CC(Nc1ccc(O)cc1)C2

$$$$
cx0894a-cx0289a
     RDKit          3D

 20 22  0  0  0  0  0  0  0  0999 V2000
   14.8996   10.3273   15.7146 Cl  0  0  0  0  0  0  0  0  0  0  0  0
   16.0332   10.0247    9.6832 S   0  0  0  0  0  4  0  0  0  0  0  0
   15.7428    8.6911    9.0751 O   0  0  0  0  0  0  0  0  0  0  0  0
   17.6497   10.0698   10.2198 N   0  0  0  0  0  0  0  0  0  0  0  0
   15.5765    7.7404   14.3340 N   0  0  0  0  0  0  0  0  0  0  0  0
   14.8824   10.0708   14.0237 C   0  0  0  0  0  0  0  0  0  0  0  0
   14.5731   11.1204   13.1584 C   0  0  0  0  0  0  0  0  0  0  0  0
   14.7760   11.0135   11.7955 C   0  0  0  0  0  0  0  0  0  0  0  0
   15.3659    9.8575   11.3030 C   0  0  0  0  0  0  0  0  0  0  0  0
   15.5249    8.7323   12.1232 C   0  0  0  0  0  0  0  0  0  0  0  0
   15.2432    8.8161   13.4863 C   0  0  0  0  0  0  0  0  0  0  0  0
   14.1341   12.4088   13.3257 N   0  0  0  0  0  0  0  0  0  0  0  0
   14.1091   12.9994   12.0945 C   0  0  0  0  0  0  0  0  0  0  0  0
   14.4678   12.1777   11.1433 N   0  0  0  0  0  0  0  0  0  0  0  0
   19.7255   11.0622   10.4234 N   0  0  0  0  0  0  0  0  0  0  0  0
   18.4006   11.1623   10.6705 C   0  0  0  0  0  0  0  0  0  0  0  0
   17.9283   12.2307   11.4154 C   0  0  0  0  0  0  0  0  0  0  0  0
   18.8089   13.2143   11.8801 C   0  0  0  0  0  0  0  0  0  0  0  0
   20.1620   13.1067   11.6072 C   0  0  0  0  0  0  0  0  0  0  0  0
   20.5737   12.0110   10.8829 C   0  0  0  0  0  0  0  0  0  0  0  0
  3  2  2  0
  2  4  1  1
  6  1  1  0
  6 11  2  0
  6  7  1  0
  7 12  1  0
  7  8  2  0
  8  9  1  0
  8 14  1  0
  9 10  2  0
 10 11  1  0
 12 13  1  0
 13 14  2  0
 15 20  2  0
 15 16  1  0
 16  4  1  0
 16 17  2  0
 17 18  1  0
 18 19  2  0
 19 20  1  0
  2  9  1  0
  5 11  1  0
M  END
>  <generation_date>  (310) 
None

>  <inchikey>  (310) 
WUFYJWSZDFLHKX-FQEVSTJZSA-N

>  <ref_mols>  (310) 
cx0289a,cx0894a

>  <tags>  (310) 
['butcher: adenine', 'fragmenstein', 'select (DF) [arg144_pures]', 'arg144_pures', 'raw', 'butcher: arginine']

>  <ref_pdb>  (310) 
cx0270a

>  <alias>  (310) 
cx0894a-cx0289a

>  <submitter_name>  (310) 
None

>  <HIPPO ID>  (310) 
4347

>  <original ID>  (310) 
cx0894a-cx0289a

>  <method>  (310) 
None

>  <ref_url>  (310) 
None

>  <submitter_email>  (310) 
None

>  <original SMILES>  (310) 
Nc1cc([S@](=O)Nc2ccccn2)c2nc[nH]c2c1Cl

$$$$
cx0894b-cx0289a
     RDKit          3D

 21 23  0  0  0  0  0  0  0  0999 V2000
   17.0643   13.1983   12.4487 Cl  0  0  0  0  0  0  0  0  0  0  0  0
   15.2179   11.6854   10.4392 O   0  0  0  0  0  0  0  0  0  0  0  0
   15.9062   10.4175   10.4602 S   0  0  0  0  0  6  0  0  0  0  0  0
   15.5534    9.3983    9.4903 O   0  0  0  0  0  0  0  0  0  0  0  0
   14.7550    7.8657   15.7306 N   0  0  0  0  0  0  0  0  0  0  0  0
   17.5606   10.5817   10.3362 N   0  0  0  0  0  0  0  0  0  0  0  0
   18.4898   12.5805   11.7320 C   0  0  0  0  0  0  0  0  0  0  0  0
   19.6964   13.2378   12.0856 C   0  0  0  0  0  0  0  0  0  0  0  0
   20.9492   12.8720   11.6097 C   0  0  0  0  0  0  0  0  0  0  0  0
   21.0445   11.8013   10.7323 C   0  0  0  0  0  0  0  0  0  0  0  0
   19.8555   11.1475   10.3743 C   0  0  0  0  0  0  0  0  0  0  0  0
   18.5663   11.4887   10.8464 C   0  0  0  0  0  0  0  0  0  0  0  0
   19.9794   14.2842   12.9373 N   0  0  0  0  0  0  0  0  0  0  0  0
   21.3298   14.4867   12.9426 C   0  0  0  0  0  0  0  0  0  0  0  0
   21.9382   13.6741   12.1142 N   0  0  0  0  0  0  0  0  0  0  0  0
   15.6768    8.2779   12.1674 C   0  0  0  0  0  0  0  0  0  0  0  0
   15.6236    9.6686   12.0429 C   0  0  0  0  0  0  0  0  0  0  0  0
   15.1963   10.4443   13.1184 C   0  0  0  0  0  0  0  0  0  0  0  0
   14.9522    9.8434   14.3533 C   0  0  0  0  0  0  0  0  0  0  0  0
   15.1169    8.4674   14.5227 C   0  0  0  0  0  0  0  0  0  0  0  0
   15.4126    7.6835   13.4039 C   0  0  0  0  0  0  0  0  0  0  0  0
  4  3  2  0
  3  2  2  0
  6  3  1  0
  7  1  1  0
  7 12  2  0
  7  8  1  0
  8 13  1  0
  8  9  2  0
  9 10  1  0
  9 15  1  0
 10 11  2  0
 11 12  1  0
 13 14  1  0
 14 15  2  0
 16 21  2  0
 16 17  1  0
 17 18  2  0
 17  3  1  0
 18 19  1  0
 19 20  2  0
 20  5  1  0
 20 21  1  0
  6 12  1  0
M  END
>  <generation_date>  (311) 
None

>  <inchikey>  (311) 
IIRPMUAXXAQELO-UHFFFAOYSA-N

>  <ref_mols>  (311) 
cx0289a,cx0894b

>  <tags>  (311) 
['butcher: adenine', 'fragmenstein', 'select (DF) [arg144_pures]', 'arg144_pures', 'raw', 'butcher: arginine']

>  <ref_pdb>  (311) 
cx0270a

>  <alias>  (311) 
cx0894b-cx0289a

>  <submitter_name>  (311) 
None

>  <HIPPO ID>  (311) 
4405

>  <original ID>  (311) 
cx0894b-cx0289a

>  <method>  (311) 
None

>  <ref_url>  (311) 
None

>  <submitter_email>  (311) 
None

>  <original SMILES>  (311) 
Nc1ccc(S(=O)(=O)Nc2ccc3nc[nH]c3c2Cl)cc1

$$$$
cx0894d-cx0289a
     RDKit          3D

 21 23  0  0  0  0  0  0  0  0999 V2000
   21.6971   14.1434   13.2598 Cl  0  0  0  0  0  0  0  0  0  0  0  0
   15.1876   11.5597   10.3158 O   0  0  0  0  0  0  0  0  0  0  0  0
   15.8656   10.2851   10.3530 S   0  0  0  0  0  6  0  0  0  0  0  0
   15.5754    9.2633    9.3717 O   0  0  0  0  0  0  0  0  0  0  0  0
   14.7642    7.8663   15.6950 N   0  0  0  0  0  0  0  0  0  0  0  0
   17.5263   10.4872   10.3560 N   0  0  0  0  0  0  0  0  0  0  0  0
   21.2885   12.9894   12.0763 C   0  0  0  0  0  0  0  0  0  0  0  0
   19.9201   12.7217   11.8507 C   0  0  0  0  0  0  0  0  0  0  0  0
   19.6017   11.7095   10.9397 C   0  0  0  0  0  0  0  0  0  0  0  0
   20.5920   11.0169   10.2336 C   0  0  0  0  0  0  0  0  0  0  0  0
   21.9312   11.3543   10.4413 C   0  0  0  0  0  0  0  0  0  0  0  0
   22.2848   12.3182   11.3705 C   0  0  0  0  0  0  0  0  0  0  0  0
   18.7546   13.2437   12.3867 N   0  0  0  0  0  0  0  0  0  0  0  0
   17.7677   12.5649   11.8340 C   0  0  0  0  0  0  0  0  0  0  0  0
   18.2289   11.5979   10.9899 N   0  0  0  0  0  0  0  0  0  0  0  0
   15.5587    8.1716   12.0882 C   0  0  0  0  0  0  0  0  0  0  0  0
   15.5569    9.5595   11.9431 C   0  0  0  0  0  0  0  0  0  0  0  0
   15.2279   10.3793   13.0241 C   0  0  0  0  0  0  0  0  0  0  0  0
   15.0016    9.8106   14.2771 C   0  0  0  0  0  0  0  0  0  0  0  0
   15.1038    8.4301   14.4622 C   0  0  0  0  0  0  0  0  0  0  0  0
   15.3176    7.6137   13.3464 C   0  0  0  0  0  0  0  0  0  0  0  0
  4  3  2  0
  3  2  2  0
  6  3  1  0
  7  1  1  0
  7 12  2  0
  7  8  1  0
  8 13  1  0
  8  9  2  0
  9 10  1  0
  9 15  1  0
 10 11  2  0
 11 12  1  0
 13 14  2  0
 14 15  1  0
 16 21  2  0
 16 17  1  0
 17 18  2  0
 17  3  1  0
 18 19  1  0
 19 20  2  0
 20  5  1  0
 20 21  1  0
  6 15  1  0
M  END
>  <generation_date>  (312) 
None

>  <inchikey>  (312) 
ZICDNRGAIBEXSM-UHFFFAOYSA-N

>  <ref_mols>  (312) 
cx0289a,cx0894d

>  <tags>  (312) 
['butcher: adenine', 'fragmenstein', 'select (HA) [arg144_pures]', 'select (DF) [arg144_pures]', 'arg144_pures', 'raw', 'butcher: arginine']

>  <ref_pdb>  (312) 
cx0270a

>  <alias>  (312) 
cx0894d-cx0289a

>  <submitter_name>  (312) 
None

>  <HIPPO ID>  (312) 
4467

>  <original ID>  (312) 
cx0894d-cx0289a

>  <method>  (312) 
None

>  <ref_url>  (312) 
None

>  <submitter_email>  (312) 
None

>  <original SMILES>  (312) 
Nc1ccc(S(=O)(=O)Nn2cnc3c(Cl)cccc32)cc1

$$$$
cx0894e-cx0692a
     RDKit          3D

 19 21  0  0  0  0  0  0  0  0999 V2000
   21.2617   15.0919   12.9112 Cl  0  0  0  0  0  0  0  0  0  0  0  0
   20.6465   13.7716   12.0284 C   0  0  0  0  0  0  0  0  0  0  0  0
   21.5632   13.0733   11.2280 C   0  0  0  0  0  0  0  0  0  0  0  0
   21.0953   11.9628   10.5318 C   0  0  0  0  0  0  0  0  0  0  0  0
   19.7680   11.5273   10.5780 C   0  0  0  0  0  0  0  0  0  0  0  0
   18.8708   12.2714   11.3629 C   0  0  0  0  0  0  0  0  0  0  0  0
   19.3072   13.3845   12.0920 C   0  0  0  0  0  0  0  0  0  0  0  0
   22.9005   13.2765   10.9589 N   0  0  0  0  0  0  0  0  0  0  0  0
   23.2402   12.3303   10.1168 C   0  0  0  0  0  0  0  0  0  0  0  0
   22.1904   11.5079    9.8420 N   0  0  0  0  0  0  0  0  0  0  0  0
   16.9219   12.0717   12.6227 O   0  0  0  0  0  0  0  0  0  0  0  0
   17.4901   11.7639   11.5810 C   0  0  0  0  0  0  0  0  0  0  0  0
   16.9797   10.9440   10.5968 N   0  0  0  0  0  0  0  0  0  0  0  0
   15.9875    9.9659   10.7714 C   0  0  0  0  0  0  0  0  0  0  0  0
   15.6222    9.4732   12.0236 C   0  0  0  0  0  0  0  0  0  0  0  0
   14.8065    8.3466   12.1168 C   0  0  0  0  0  0  0  0  0  0  0  0
   14.2916    7.7587   10.9640 C   0  0  0  0  0  0  0  0  0  0  0  0
   14.5672    8.3163    9.7221 C   0  0  0  0  0  0  0  0  0  0  0  0
   15.4445    9.3915    9.6224 C   0  0  0  0  0  0  0  0  0  0  0  0
  2  1  1  0
  2  7  2  0
  2  3  1  0
  3  8  1  0
  3  4  2  0
  4  5  1  0
  4 10  1  0
  5  6  2  0
  6  7  1  0
  8  9  2  0
  9 10  1  0
 12 11  2  0
 13 12  1  0
 14 13  1  0
 14 19  1  0
 14 15  2  0
 15 16  1  0
 16 17  2  0
 17 18  1  0
 18 19  2  0
  6 12  1  0
M  END
>  <generation_date>  (313) 
None

>  <inchikey>  (313) 
IMOYJNKITCRRFB-UHFFFAOYSA-N

>  <ref_mols>  (313) 
cx0692a,cx0894e

>  <tags>  (313) 
['butcher: adenine', 'fragmenstein', 'select (HA) [arg144_pures]', 'arg144_pures', 'raw', 'butcher: arginine']

>  <ref_pdb>  (313) 
cx0270a

>  <alias>  (313) 
cx0894e-cx0692a

>  <submitter_name>  (313) 
None

>  <HIPPO ID>  (313) 
4529

>  <original ID>  (313) 
cx0894e-cx0692a

>  <method>  (313) 
None

>  <ref_url>  (313) 
None

>  <submitter_email>  (313) 
None

>  <original SMILES>  (313) 
O=C(Nc1ccccc1)c1cc(Cl)c2nc[nH]c2c1

$$$$
cx0935a-cx0300a
     RDKit          3D

 28 30  0  0  0  0  0  0  0  0999 V2000
   17.4917   12.6294   12.2899 O   0  0  0  0  0  0  0  0  0  0  0  0
   18.1394   12.0769   11.4017 C   0  0  0  0  0  0  0  0  0  0  0  0
   19.6002   12.4462   11.1502 C   0  0  0  0  0  0  0  0  0  0  0  0
   20.2639   11.4226   10.4200 O   0  0  0  0  0  0  0  0  0  0  0  0
   21.6791   11.5773   10.4722 C   0  0  0  0  0  0  0  0  0  0  0  0
   17.6530   11.1127   10.5423 N   0  0  0  0  0  0  0  0  0  0  0  0
   13.7526    7.2975   11.2568 O   0  0  0  0  0  0  0  0  0  0  0  0
   16.4947   10.3475   10.7074 C   0  0  0  0  0  0  0  0  0  0  0  0
   15.9361   10.1756   11.9614 C   0  0  0  0  0  0  0  0  0  0  0  0
   15.0527    9.1220   12.1740 C   0  0  0  0  0  0  0  0  0  0  0  0
   14.6013    8.3591   11.0799 C   0  0  0  0  0  0  0  0  0  0  0  0
   15.0236    8.6518    9.7976 C   0  0  0  0  0  0  0  0  0  0  0  0
   16.0198    9.5998    9.6284 C   0  0  0  0  0  0  0  0  0  0  0  0
   18.4599    4.3800   11.6343 O   0  0  0  0  0  0  0  0  0  0  0  0
   15.6832    5.1204   14.7176 N   0  0  0  0  0  0  0  0  0  0  0  0
   14.9889    5.8361   15.6603 C   0  0  0  0  0  0  0  0  0  0  0  0
   14.4930    5.4016   16.6878 O   0  0  0  0  0  0  0  0  0  0  0  0
   17.6579    3.9607   12.4728 C   0  0  0  0  0  0  0  0  0  0  0  0
   16.3293    3.9214   12.1738 N   0  0  0  0  0  0  0  0  0  0  0  0
   15.3131    3.3958   13.0675 C   0  0  0  0  0  0  0  0  0  0  0  0
   15.6478    3.6833   14.5342 C   0  0  1  0  0  0  0  0  0  0  0  0
   17.0102    3.0663   14.8176 C   0  0  0  0  0  0  0  0  0  0  0  0
   18.0932    3.5970   13.8813 C   0  0  0  0  0  0  0  0  0  0  0  0
   15.1236    7.4331   13.8643 N   0  0  0  0  0  0  0  0  0  0  0  0
   14.8572    8.6683   13.5379 C   0  0  0  0  0  0  0  0  0  0  0  0
   14.4401    9.6845   14.8511 S   0  0  0  0  0  0  0  0  0  0  0  0
   14.4585    8.3239   15.9072 C   0  0  0  0  0  0  0  0  0  0  0  0
   14.8502    7.2085   15.2003 C   0  0  0  0  0  0  0  0  0  0  0  0
  5  4  1  0
  4  3  1  0
  3  2  1  0
  2  1  2  0
  6  2  1  0
  8  6  1  0
  8 13  2  0
  8  9  1  0
  9 10  2  0
 10 11  1  0
 11 12  2  0
 11  7  1  0
 12 13  1  0
 17 16  2  0
 16 15  1  0
 18 23  1  0
 18 14  2  0
 18 19  1  0
 19 20  1  0
 20 21  1  0
 21 15  1  6
 21 22  1  0
 22 23  1  0
 24 25  2  0
 24 28  1  0
 25 26  1  0
 26 27  1  0
 27 28  2  0
 28 16  1  0
 10 25  1  0
M  END
>  <generation_date>  (314) 
None

>  <inchikey>  (314) 
SBEBTLKTHHBVAY-LLVKDONJSA-N

>  <ref_mols>  (314) 
cx0935a,cx0300a

>  <tags>  (314) 
['butcher: adenine', 'fragmenstein', 'butcher: oxyanion', 'select (HA) [arg144_pures]', 'arg144_pures', 'raw', 'butcher: arginine']

>  <ref_pdb>  (314) 
cx0270a

>  <alias>  (314) 
cx0935a-cx0300a

>  <submitter_name>  (314) 
None

>  <HIPPO ID>  (314) 
4582

>  <original ID>  (314) 
cx0935a-cx0300a

>  <method>  (314) 
None

>  <ref_url>  (314) 
None

>  <submitter_email>  (314) 
None

>  <original SMILES>  (314) 
COCC(=O)Nc1ccc(O)c(-c2nc(C(=O)N[C@@H]3CCC(=O)NC3)cs2)c1

$$$$
cx0935a-cx0312a
     RDKit          3D

 24 26  0  0  0  0  0  0  0  0999 V2000
   16.8964   11.9558   11.7868 C   0  0  0  0  0  0  0  0  0  0  0  0
   16.9227   10.8503   10.8273 N   0  0  0  0  0  0  0  0  0  0  0  0
   13.3370    6.6361   11.0999 O   0  0  0  0  0  0  0  0  0  0  0  0
   21.3139   14.6660   14.5781 O   0  0  0  0  0  0  0  0  0  0  0  0
   21.0766   15.5829   13.7964 C   0  0  0  0  0  0  0  0  0  0  0  0
   22.0312   16.5762   13.5186 N   0  0  0  0  0  0  0  0  0  0  0  0
   21.6101   17.9661   13.5820 C   0  0  0  0  0  0  0  0  0  0  0  0
   23.3663   16.3113   14.0411 C   0  0  0  0  0  0  0  0  0  0  0  0
   19.7707   15.6708   13.0344 C   0  0  0  0  0  0  0  0  0  0  0  0
   15.9792    9.8357   10.9335 C   0  0  0  0  0  0  0  0  0  0  0  0
   15.6290    9.2701   12.1640 C   0  0  0  0  0  0  0  0  0  0  0  0
   14.7800    8.1698   12.2324 C   0  0  0  0  0  0  0  0  0  0  0  0
   14.2350    7.6599   11.0630 C   0  0  0  0  0  0  0  0  0  0  0  0
   14.5411    8.2192    9.8347 C   0  0  0  0  0  0  0  0  0  0  0  0
   15.4408    9.2803    9.7685 C   0  0  0  0  0  0  0  0  0  0  0  0
   19.4038   14.3933   12.4430 N   0  0  0  0  0  0  0  0  0  0  0  0
   18.1072   13.9970   12.4827 N   0  0  0  0  0  0  0  0  0  0  0  0
   18.1205   12.8149   11.8478 C   0  0  0  0  0  0  0  0  0  0  0  0
   19.4045   12.4979   11.3404 C   0  0  0  0  0  0  0  0  0  0  0  0
   20.2176   13.5574   11.7147 C   0  0  0  0  0  0  0  0  0  0  0  0
   21.5796   13.5977   11.3814 C   0  0  0  0  0  0  0  0  0  0  0  0
   19.9661   11.4206   10.6371 C   0  0  0  0  0  0  0  0  0  0  0  0
   21.3314   11.4203   10.3594 C   0  0  0  0  0  0  0  0  0  0  0  0
   22.1233   12.5023   10.7100 C   0  0  0  0  0  0  0  0  0  0  0  0
  2  1  1  0
  8  6  1  0
  7  6  1  0
  6  5  1  0
  5  4  2  0
  9  5  1  0
 10  2  1  0
 10 15  1  0
 10 11  2  0
 11 12  1  0
 12 13  2  0
 13 14  1  0
 13  3  1  0
 14 15  2  0
 16  9  1  0
 16 17  1  0
 16 20  1  0
 17 18  2  0
 18 19  1  0
 19 22  1  0
 19 20  2  0
 20 21  1  0
 21 24  2  0
 22 23  2  0
 23 24  1  0
 18  1  1  0
M  END
>  <generation_date>  (315) 
None

>  <inchikey>  (315) 
WLFMTZKZYACXSW-UHFFFAOYSA-N

>  <ref_mols>  (315) 
cx0935a,cx0312a

>  <tags>  (315) 
['butcher: adenine', 'fragmenstein', 'select (DF) [arg144_pures]', 'arg144_pures', 'raw', 'butcher: arginine']

>  <ref_pdb>  (315) 
cx0270a

>  <alias>  (315) 
cx0935a-cx0312a

>  <submitter_name>  (315) 
None

>  <HIPPO ID>  (315) 
4585

>  <original ID>  (315) 
cx0935a-cx0312a

>  <method>  (315) 
None

>  <ref_url>  (315) 
None

>  <submitter_email>  (315) 
None

>  <original SMILES>  (315) 
CN(C)C(=O)Cn1nc(CNc2ccc(O)cc2)c2ccccc21

$$$$
cx0935a-cx0404a
     RDKit          3D

 23 24  0  0  0  0  0  0  0  0999 V2000
   17.1758   13.2591   11.8277 O   0  0  0  0  0  0  0  0  0  0  0  0
   17.9989   12.3606   11.7011 C   0  0  0  0  0  0  0  0  0  0  0  0
   19.4918   12.6212   11.4503 C   0  0  0  0  0  0  0  0  0  0  0  0
   20.0568   11.4826   10.7859 O   0  0  0  0  0  0  0  0  0  0  0  0
   21.4717   11.6035   10.6539 C   0  0  0  0  0  0  0  0  0  0  0  0
   17.7023   11.0035   11.7550 N   0  0  0  0  0  0  0  0  0  0  0  0
   14.1802    7.1746   10.0481 O   0  0  0  0  0  0  0  0  0  0  0  0
   13.9361   11.7408   10.1935 O   0  0  0  0  0  0  0  0  0  0  0  0
   14.0591   12.1442   11.3430 C   0  0  0  0  0  0  0  0  0  0  0  0
   13.9005   13.4506   11.6606 N   0  0  0  0  0  0  0  0  0  0  0  0
   16.1828    8.6736   14.4959 C   0  0  0  0  0  0  0  0  0  0  0  0
   15.3243    7.5243   14.5105 O   0  0  0  0  0  0  0  0  0  0  0  0
   16.0326    6.3359   14.8244 C   0  0  0  0  0  0  0  0  0  0  0  0
   16.4218   10.5213   11.2999 C   0  0  2  0  0  0  0  0  0  0  0  0
   15.2956   10.0365   12.3146 C   0  0  2  0  0  0  0  0  0  0  0  0
   14.7298    8.6936   11.7731 C   0  0  0  0  0  0  0  0  0  0  0  0
   14.3897    8.5679   10.2846 C   0  0  1  0  0  0  0  0  0  0  0  0
   15.4635    9.1485    9.3982 C   0  0  0  0  0  0  0  0  0  0  0  0
   16.6900    9.4980   10.1982 C   0  0  0  0  0  0  0  0  0  0  0  0
   14.3578   11.2471   12.5328 C   0  0  1  0  0  0  0  0  0  0  0  0
   15.4412    9.8348   13.8601 C   0  0  2  0  0  0  0  0  0  0  0  0
   15.7914   11.1054   14.3883 O   0  0  0  0  0  0  0  0  0  0  0  0
   14.9941   12.0584   13.6232 N   0  0  0  0  0  0  0  0  0  0  0  0
  5  4  1  0
  4  3  1  0
  3  2  1  0
  2  1  2  0
  6  2  1  0
 13 12  1  0
 12 11  1  0
  9  8  2  0
 10  9  1  0
 14  6  1  1
 14 19  1  0
 14 15  1  0
 15 16  1  6
 16 17  1  0
 17 18  1  0
 17  7  1  6
 18 19  1  0
 20 23  1  0
 20  9  1  6
 21 11  1  6
 21 22  1  0
 22 23  1  0
 15 20  1  0
 15 21  1  0
M  END
>  <generation_date>  (316) 
None

>  <inchikey>  (316) 
DMQVVDLEWZRGCR-SKZKVKIVSA-N

>  <ref_mols>  (316) 
cx0935a,cx0404a

>  <tags>  (316) 
['butcher: adenine', 'fragmenstein', 'select (HA) [arg144_pures]', 'select (DF) [arg144_pures]', 'arg144_pures', 'raw', 'butcher: arginine']

>  <ref_pdb>  (316) 
cx0270a

>  <alias>  (316) 
cx0935a-cx0404a

>  <submitter_name>  (316) 
None

>  <HIPPO ID>  (316) 
4591

>  <original ID>  (316) 
cx0935a-cx0404a

>  <method>  (316) 
None

>  <ref_url>  (316) 
None

>  <submitter_email>  (316) 
None

>  <original SMILES>  (316) 
COCC(=O)N[C@H]1CC[C@@H](O)C[C@@]12[C@@H](COC)ON[C@H]2C(N)=O

$$$$
cx0935a-cx0477a
     RDKit          3D

 23 24  0  0  0  0  0  0  0  0999 V2000
   17.8110   12.9795   11.7667 O   0  0  0  0  0  0  0  0  0  0  0  0
   18.5450   12.2275   11.1221 C   0  0  0  0  0  0  0  0  0  0  0  0
   20.0415   12.4477   11.0409 C   0  0  0  0  0  0  0  0  0  0  0  0
   20.6767   11.3425   10.4128 O   0  0  0  0  0  0  0  0  0  0  0  0
   22.0810   11.5649   10.3327 C   0  0  0  0  0  0  0  0  0  0  0  0
   18.0769   11.1243   10.4243 N   0  0  0  0  0  0  0  0  0  0  0  0
   14.2620    7.9998   11.7812 O   0  0  0  0  0  0  0  0  0  0  0  0
   13.6428   12.1336   11.1932 O   0  0  0  0  0  0  0  0  0  0  0  0
   14.4028   12.4966   12.0765 C   0  0  0  0  0  0  0  0  0  0  0  0
   14.6247   13.8234   12.2648 N   0  0  0  0  0  0  0  0  0  0  0  0
   14.9457    8.1847   14.3475 C   0  0  0  0  0  0  0  0  0  0  0  0
   15.4751    7.5767   15.6532 C   0  0  0  0  0  0  0  0  0  0  0  0
   16.8999    7.5757   15.6125 O   0  0  0  0  0  0  0  0  0  0  0  0
   16.7271   10.7156   10.6418 C   0  0  2  0  0  0  0  0  0  0  0  0
   16.6893   10.0192   11.9808 C   0  0  0  0  0  0  0  0  0  0  0  0
   15.3929   10.0946   12.6801 C   0  0  2  0  0  0  0  0  0  0  0  0
   14.4836    9.4070   11.6396 C   0  0  1  0  0  0  0  0  0  0  0  0
   14.6170    9.6208   10.1075 C   0  0  0  0  0  0  0  0  0  0  0  0
   16.0471    9.8032    9.6429 C   0  0  0  0  0  0  0  0  0  0  0  0
   15.1547   11.5930   13.0236 C   0  0  2  0  0  0  0  0  0  0  0  0
   14.4641   11.5388   14.3505 C   0  0  0  0  0  0  0  0  0  0  0  0
   15.1965   10.4930   15.0457 N   0  0  0  0  0  0  0  0  0  0  0  0
   15.5523    9.4948   14.0553 N   0  0  0  0  0  0  0  0  0  0  0  0
  5  4  1  0
  4  3  1  0
  3  2  1  0
  2  1  2  0
  6  2  1  0
 10  9  1  0
  9  8  2  0
 12 11  1  0
 13 12  1  0
 14  6  1  6
 14 19  1  0
 14 15  1  0
 16 15  1  6
 16 17  1  0
 17 18  1  0
 17  7  1  6
 18 19  1  0
 20  9  1  6
 20 21  1  0
 21 22  1  0
 22 23  1  0
 23 11  1  0
 16 20  1  0
 16 23  1  0
M  END
>  <generation_date>  (317) 
None

>  <inchikey>  (317) 
YQIWVNUMRNXSFL-ICUOPCATSA-N

>  <ref_mols>  (317) 
cx0935a,cx0477a

>  <tags>  (317) 
['butcher: adenine', 'fragmenstein', 'select (HA) [arg144_pures]', 'select (DF) [arg144_pures]', 'arg144_pures', 'raw', 'butcher: arginine']

>  <ref_pdb>  (317) 
cx0270a

>  <alias>  (317) 
cx0935a-cx0477a

>  <submitter_name>  (317) 
None

>  <HIPPO ID>  (317) 
4593

>  <original ID>  (317) 
cx0935a-cx0477a

>  <method>  (317) 
None

>  <ref_url>  (317) 
None

>  <submitter_email>  (317) 
None

>  <original SMILES>  (317) 
COCC(=O)N[C@H]1CC[C@@H](O)[C@@]2(C1)[C@@H](C(N)=O)CNN2CCO

$$$$
cx0935a-cx0553a
     RDKit          3D

 21 21  0  0  0  0  0  0  0  0999 V2000
   17.3922   12.3859   12.7570 O   0  0  0  0  0  0  0  0  0  0  0  0
   17.8186   11.9698   11.6859 C   0  0  0  0  0  0  0  0  0  0  0  0
   19.2398   12.3667   11.2544 C   0  0  0  0  0  0  0  0  0  0  0  0
   19.8611   11.3716   10.4544 O   0  0  0  0  0  0  0  0  0  0  0  0
   21.2842   11.4495   10.5337 C   0  0  0  0  0  0  0  0  0  0  0  0
   17.1360   11.2359   10.7410 N   0  0  0  0  0  0  0  0  0  0  0  0
   13.7895    6.9587   10.2732 O   0  0  0  0  0  0  0  0  0  0  0  0
   15.1308    6.6852   13.4590 N   0  0  0  0  0  0  0  0  0  0  0  0
   14.9628    7.5322   12.6826 C   0  0  0  0  0  0  0  0  0  0  0  0
   15.3020   10.5309   13.1988 N   0  0  0  0  0  0  0  0  0  0  0  0
   14.7642   11.9130   13.1064 C   0  0  0  0  0  0  0  0  0  0  0  0
   14.8762    9.9084   14.4742 C   0  0  0  0  0  0  0  0  0  0  0  0
   16.0658    9.6078   15.3756 C   0  0  0  0  0  0  0  0  0  0  0  0
   16.7021   10.4909   15.9444 O   0  0  0  0  0  0  0  0  0  0  0  0
   16.3892    8.2965   15.5657 N   0  0  0  0  0  0  0  0  0  0  0  0
   15.9659   10.4304   10.8059 C   0  0  0  0  0  0  0  0  0  0  0  0
   15.3877    9.8624   11.9631 C   0  0  0  0  0  0  0  0  0  0  0  0
   14.8674    8.5672   11.7168 C   0  0  0  0  0  0  0  0  0  0  0  0
   14.4422    8.1492   10.4431 C   0  0  0  0  0  0  0  0  0  0  0  0
   14.6710    8.9402    9.3535 C   0  0  0  0  0  0  0  0  0  0  0  0
   15.5168   10.0146    9.5334 C   0  0  0  0  0  0  0  0  0  0  0  0
  5  4  1  0
  4  3  1  0
  3  2  1  0
  2  1  2  0
  6  2  1  0
  9  8  3  0
 11 10  1  0
 12 10  1  0
 13 12  1  0
 14 13  2  0
 15 13  1  0
 16  6  1  0
 16 21  2  0
 16 17  1  0
 17 18  2  0
 18 19  1  0
 19 20  2  0
 19  7  1  0
 20 21  1  0
  9 18  1  0
 10 17  1  0
M  END
>  <generation_date>  (318) 
None

>  <inchikey>  (318) 
XXPRWRCNORVHSY-UHFFFAOYSA-N

>  <ref_mols>  (318) 
cx0935a,cx0553a

>  <tags>  (318) 
['butcher: adenine', 'fragmenstein', 'select (HA) [arg144_pures]', 'arg144_pures', 'raw', 'butcher: arginine']

>  <ref_pdb>  (318) 
cx0270a

>  <alias>  (318) 
cx0935a-cx0553a

>  <submitter_name>  (318) 
None

>  <HIPPO ID>  (318) 
4595

>  <original ID>  (318) 
cx0935a-cx0553a

>  <method>  (318) 
None

>  <ref_url>  (318) 
None

>  <submitter_email>  (318) 
None

>  <original SMILES>  (318) 
COCC(=O)Nc1ccc(O)c(C#N)c1N(C)CC(N)=O

$$$$
cx0935a-cx0756a
     RDKit          3D

 24 26  0  0  0  0  0  0  0  0999 V2000
   17.5485   12.9680   11.7923 O   0  0  0  0  0  0  0  0  0  0  0  0
   18.2564   12.0733   11.3520 C   0  0  0  0  0  0  0  0  0  0  0  0
   19.7551   12.3025   11.1902 C   0  0  0  0  0  0  0  0  0  0  0  0
   20.3825   11.2394   10.4885 O   0  0  0  0  0  0  0  0  0  0  0  0
   21.7933   11.4466   10.4467 C   0  0  0  0  0  0  0  0  0  0  0  0
   17.8115   10.8194   10.9779 N   0  0  0  0  0  0  0  0  0  0  0  0
   14.1091    7.1663    9.9857 O   0  0  0  0  0  0  0  0  0  0  0  0
   15.8985    6.7806   13.1889 C   0  0  0  0  0  0  0  0  0  0  0  0
   16.4254   10.5656   10.5976 C   0  0  2  0  0  0  0  0  0  0  0  0
   15.2904   10.3426   11.6989 C   0  0  1  0  0  0  0  0  0  0  0  0
   14.6855    8.9455   11.4397 C   0  0  0  0  0  0  0  0  0  0  0  0
   14.1570    8.5913   10.0514 C   0  0  1  0  0  0  0  0  0  0  0  0
   15.0428    9.2025    9.0122 C   0  0  0  0  0  0  0  0  0  0  0  0
   16.4157    9.4252    9.5784 C   0  0  0  0  0  0  0  0  0  0  0  0
   15.6138    7.8261   14.2117 C   0  0  0  0  0  0  0  0  0  0  0  0
   15.3512    7.4466   15.5149 C   0  0  0  0  0  0  0  0  0  0  0  0
   15.1775    8.5774   16.2262 N   0  0  0  0  0  0  0  0  0  0  0  0
   15.2247    9.6756   15.4839 N   0  0  0  0  0  0  0  0  0  0  0  0
   15.5203    9.2814   14.2267 C   0  0  0  0  0  0  0  0  0  0  0  0
   15.7548   10.4751   13.2031 C   0  0  2  0  0  0  0  0  0  0  0  0
   15.1518   11.7784   13.8583 C   0  0  0  0  0  0  0  0  0  0  0  0
   14.9598   13.0247   13.0015 C   0  0  0  0  0  0  0  0  0  0  0  0
   14.6580   12.7659   11.6054 N   0  0  0  0  0  0  0  0  0  0  0  0
   14.1992   11.4140   11.4162 C   0  0  0  0  0  0  0  0  0  0  0  0
  5  4  1  0
  4  3  1  0
  3  2  1  0
  2  1  2  0
  6  2  1  0
  9  6  1  1
  9 14  1  0
  9 10  1  0
 10 11  1  1
 11 12  1  0
 12 13  1  0
 12  7  1  6
 13 14  1  0
 15  8  1  0
 15 16  2  0
 15 19  1  0
 16 17  1  0
 17 18  1  0
 18 19  2  0
 20 19  1  1
 20 21  1  0
 21 22  1  0
 22 23  1  0
 23 24  1  0
 10 24  1  0
 10 20  1  0
M  END
>  <generation_date>  (319) 
None

>  <inchikey>  (319) 
HJVNYADATJAOPV-XJIUQZFPSA-N

>  <ref_mols>  (319) 
cx0935a,cx0756a

>  <tags>  (319) 
['butcher: adenine', 'fragmenstein', 'select (HA) [arg144_pures]', 'arg144_pures', 'raw', 'butcher: arginine']

>  <ref_pdb>  (319) 
cx0270a

>  <alias>  (319) 
cx0935a-cx0756a

>  <submitter_name>  (319) 
None

>  <HIPPO ID>  (319) 
4596

>  <original ID>  (319) 
cx0935a-cx0756a

>  <method>  (319) 
None

>  <ref_url>  (319) 
None

>  <submitter_email>  (319) 
None

>  <original SMILES>  (319) 
COCC(=O)N[C@H]1CC[C@@H](O)C[C@]12CNCC[C@H]2c1n[nH]cc1C

$$$$
cx0935a-cx0839a
     RDKit          3D

 20 21  0  0  0  0  0  0  0  0999 V2000
   17.6469   12.9909   11.6327 O   0  0  0  0  0  0  0  0  0  0  0  0
   18.3360   12.0426   11.2649 C   0  0  0  0  0  0  0  0  0  0  0  0
   19.8409   12.2313   11.1475 C   0  0  0  0  0  0  0  0  0  0  0  0
   20.4783   11.1946   10.4221 O   0  0  0  0  0  0  0  0  0  0  0  0
   21.8853   11.4291   10.3891 C   0  0  0  0  0  0  0  0  0  0  0  0
   17.8601   10.7819   10.9055 N   0  0  0  0  0  0  0  0  0  0  0  0
   14.0349    7.1034   11.5063 O   0  0  0  0  0  0  0  0  0  0  0  0
   15.2172   13.6148   15.6583 C   0  0  0  0  0  0  0  0  0  0  0  0
   16.0046   12.7899   14.7587 N   0  0  0  0  0  0  0  0  0  0  0  0
   16.4328   10.6201   10.6535 C   0  0  2  0  0  0  0  0  0  0  0  0
   15.4611   10.6018   11.8987 C   0  0  1  0  0  0  0  0  0  0  0  0
   15.0314    9.1672   12.2862 C   0  0  0  0  0  0  0  0  0  0  0  0
   14.5320    8.3673   11.0959 C   0  0  1  0  0  0  0  0  0  0  0  0
   15.6549    8.2242   10.1267 C   0  0  0  0  0  0  0  0  0  0  0  0
   16.0956    9.5640    9.5905 C   0  0  0  0  0  0  0  0  0  0  0  0
   15.2199   12.2678   13.6683 C   0  0  2  0  0  0  0  0  0  0  0  0
   16.0418   11.2025   13.1292 N   0  0  0  0  0  0  0  0  0  0  0  0
   14.1987   11.3997   11.4101 C   0  0  0  0  0  0  0  0  0  0  0  0
   14.3984   12.8276   11.3109 N   0  0  0  0  0  0  0  0  0  0  0  0
   14.8379   13.3468   12.6078 C   0  0  0  0  0  0  0  0  0  0  0  0
  5  4  1  0
  4  3  1  0
  3  2  1  0
  2  1  2  0
  6  2  1  0
  9  8  1  0
 10  6  1  1
 10 15  1  0
 10 11  1  0
 11 12  1  1
 12 13  1  0
 13 14  1  0
 13  7  1  1
 14 15  1  0
 16  9  1  1
 16 20  1  0
 16 17  1  0
 18 19  1  0
 19 20  1  0
 11 17  1  0
 11 18  1  0
M  END
>  <generation_date>  (320) 
None

>  <inchikey>  (320) 
OSUSJAPCJQBCSN-XZUYRWCXSA-N

>  <ref_mols>  (320) 
cx0935a,cx0839a

>  <tags>  (320) 
['butcher: adenine', 'fragmenstein', 'select (HA) [arg144_pures]', 'arg144_pures', 'raw', 'butcher: arginine']

>  <ref_pdb>  (320) 
cx0270a

>  <alias>  (320) 
cx0935a-cx0839a

>  <submitter_name>  (320) 
None

>  <HIPPO ID>  (320) 
4597

>  <original ID>  (320) 
cx0935a-cx0839a

>  <method>  (320) 
None

>  <ref_url>  (320) 
None

>  <submitter_email>  (320) 
None

>  <original SMILES>  (320) 
CN[C@H]1CNC[C@]2(C[C@H](O)CC[C@@H]2NC(=O)COC)N1

$$$$
cx0935a-cx0864a
     RDKit          3D

 23 25  0  0  0  0  0  0  0  0999 V2000
   17.5507   13.0333   11.7131 O   0  0  0  0  0  0  0  0  0  0  0  0
   18.2634   12.1134   11.3157 C   0  0  0  0  0  0  0  0  0  0  0  0
   19.7637   12.3143   11.1604 C   0  0  0  0  0  0  0  0  0  0  0  0
   20.3834   11.2345   10.4821 O   0  0  0  0  0  0  0  0  0  0  0  0
   21.7964   11.4280   10.4475 C   0  0  0  0  0  0  0  0  0  0  0  0
   17.7860   10.8465   10.9993 N   0  0  0  0  0  0  0  0  0  0  0  0
   14.0628    7.0081   11.2753 O   0  0  0  0  0  0  0  0  0  0  0  0
   16.3594   10.6523   10.8040 C   0  0  2  0  0  0  0  0  0  0  0  0
   15.4686   10.4595   12.0822 C   0  0  1  0  0  0  0  0  0  0  0  0
   14.9922    8.9885   12.2550 C   0  0  0  0  0  0  0  0  0  0  0  0
   14.4947    8.3289   10.9912 C   0  0  1  0  0  0  0  0  0  0  0  0
   15.6270    8.3084   10.0281 C   0  0  0  0  0  0  0  0  0  0  0  0
   16.0408    9.7024    9.6381 C   0  0  0  0  0  0  0  0  0  0  0  0
   15.9849   10.6687   17.9033 C   0  0  0  0  0  0  0  0  0  0  0  0
   15.7976   10.1661   16.6071 C   0  0  0  0  0  0  0  0  0  0  0  0
   15.4660   11.2681   15.8442 C   0  0  0  0  0  0  0  0  0  0  0  0
   15.4903   12.3308   16.7055 N   0  0  0  0  0  0  0  0  0  0  0  0
   15.7693   11.9828   17.9696 N   0  0  0  0  0  0  0  0  0  0  0  0
   14.6486   12.7599   13.9339 C   0  0  0  0  0  0  0  0  0  0  0  0
   15.0492   11.3583   14.4185 C   0  0  1  0  0  0  0  0  0  0  0  0
   16.1104   10.8075   13.4544 C   0  0  0  0  0  0  0  0  0  0  0  0
   14.2373   11.3873   11.8639 C   0  0  0  0  0  0  0  0  0  0  0  0
   14.4034   12.7900   12.4231 C   0  0  0  0  0  0  0  0  0  0  0  0
  5  4  1  0
  4  3  1  0
  3  2  1  0
  2  1  2  0
  6  2  1  0
  8  6  1  1
  8 13  1  0
  8  9  1  0
  9 10  1  1
 10 11  1  0
 11 12  1  0
 11  7  1  1
 12 13  1  0
 14 15  1  0
 14 18  2  0
 15 16  2  0
 20 16  1  1
 16 17  1  0
 17 18  1  0
 19 23  1  0
 19 20  1  0
 20 21  1  0
 22 23  1  0
  9 21  1  0
  9 22  1  0
M  END
>  <generation_date>  (321) 
None

>  <inchikey>  (321) 
JOMKNPKJLUDQRQ-UICACZKSSA-N

>  <ref_mols>  (321) 
cx0864a,cx0935a

>  <tags>  (321) 
['butcher: adenine', 'fragmenstein', 'select (HA) [arg144_pures]', 'select (DF) [arg144_pures]', 'arg144_pures', 'raw', 'butcher: arginine']

>  <ref_pdb>  (321) 
cx0270a

>  <alias>  (321) 
cx0935a-cx0864a

>  <submitter_name>  (321) 
None

>  <HIPPO ID>  (321) 
4599

>  <original ID>  (321) 
cx0935a-cx0864a

>  <method>  (321) 
None

>  <ref_url>  (321) 
None

>  <submitter_email>  (321) 
None

>  <original SMILES>  (321) 
COCC(=O)N[C@H]1CC[C@@H](O)C[C@]12CCC[C@H](c1ccn[nH]1)C2

$$$$
cx0935a-cx0864d
     RDKit          3D

 22 25  0  0  0  0  0  0  0  0999 V2000
   16.9491   11.1827   10.5770 N   0  0  0  0  0  0  0  0  0  0  0  0
   13.5916    6.8374   11.4406 O   0  0  0  0  0  0  0  0  0  0  0  0
   16.1236   10.0731   10.8427 C   0  0  0  0  0  0  0  0  0  0  0  0
   15.7969    9.6766   12.1408 C   0  0  0  0  0  0  0  0  0  0  0  0
   14.9806    8.5668   12.3577 C   0  0  0  0  0  0  0  0  0  0  0  0
   14.4410    7.8900   11.2679 C   0  0  0  0  0  0  0  0  0  0  0  0
   14.6944    8.3093    9.9734 C   0  0  0  0  0  0  0  0  0  0  0  0
   15.5357    9.3983    9.7636 C   0  0  0  0  0  0  0  0  0  0  0  0
   25.3100   13.8726   10.9080 C   0  0  0  0  0  0  0  0  0  0  0  0
   24.0751   13.8380   11.5767 C   0  0  0  0  0  0  0  0  0  0  0  0
   23.2470   13.0558   10.7949 C   0  0  0  0  0  0  0  0  0  0  0  0
   24.0572   12.6300    9.7593 N   0  0  0  0  0  0  0  0  0  0  0  0
   25.3032   13.1329    9.8049 N   0  0  0  0  0  0  0  0  0  0  0  0
   21.3336   11.5421   10.3361 C   0  0  0  0  0  0  0  0  0  0  0  0
   21.8365   12.7002   10.9508 C   0  0  0  0  0  0  0  0  0  0  0  0
   20.9563   13.5073   11.6983 C   0  0  0  0  0  0  0  0  0  0  0  0
   19.6283   13.1272   11.7984 C   0  0  0  0  0  0  0  0  0  0  0  0
   19.1462   11.9911   11.1859 C   0  0  0  0  0  0  0  0  0  0  0  0
   19.9810   11.2105   10.4222 C   0  0  0  0  0  0  0  0  0  0  0  0
   17.7956   11.7483   11.4914 N   0  0  0  0  0  0  0  0  0  0  0  0
   17.4531   12.9845   12.2150 C   0  0  0  0  0  0  0  0  0  0  0  0
   18.6412   13.7910   12.4779 O   0  0  0  0  0  0  0  0  0  0  0  0
  3  1  1  0
  3  8  1  0
  3  4  2  0
  4  5  1  0
  5  6  2  0
  6  7  1  0
  6  2  1  0
  7  8  2  0
  9 10  1  0
  9 13  2  0
 10 11  2  0
 11 15  1  0
 11 12  1  0
 12 13  1  0
 14 19  2  0
 14 15  1  0
 15 16  2  0
 16 17  1  0
 17 18  2  0
 17 22  1  0
 18 20  1  0
 18 19  1  0
 20 21  1  0
 21 22  1  0
  1 20  1  0
M  END
>  <generation_date>  (322) 
None

>  <inchikey>  (322) 
LQNAXKMPRWMOMP-UHFFFAOYSA-N

>  <ref_mols>  (322) 
cx0935a,cx0864d

>  <tags>  (322) 
['butcher: adenine', 'fragmenstein', 'select (HA) [arg144_pures]', 'select (DF) [arg144_pures]', 'arg144_pures', 'select (JA) [arg144_pures]', 'raw', 'butcher: arginine']

>  <ref_pdb>  (322) 
cx0270a

>  <alias>  (322) 
cx0935a-cx0864d

>  <submitter_name>  (322) 
None

>  <HIPPO ID>  (322) 
4601

>  <original ID>  (322) 
cx0935a-cx0864d

>  <method>  (322) 
None

>  <ref_url>  (322) 
None

>  <submitter_email>  (322) 
None

>  <original SMILES>  (322) 
Oc1ccc(NN2COc3cc(-c4ccn[nH]4)ccc32)cc1

$$$$
cx0935a-cx0969a
     RDKit          3D

 20 21  0  0  0  0  0  0  0  0999 V2000
   17.5242   13.0364   11.7209 O   0  0  0  0  0  0  0  0  0  0  0  0
   18.2369   12.1124   11.3350 C   0  0  0  0  0  0  0  0  0  0  0  0
   19.7378   12.3126   11.1774 C   0  0  0  0  0  0  0  0  0  0  0  0
   20.3573   11.2338   10.4956 O   0  0  0  0  0  0  0  0  0  0  0  0
   21.7705   11.4242   10.4626 C   0  0  0  0  0  0  0  0  0  0  0  0
   17.7606   10.8445   11.0219 N   0  0  0  0  0  0  0  0  0  0  0  0
   14.0445    6.9935   11.2191 O   0  0  0  0  0  0  0  0  0  0  0  0
   16.7796   11.5605   16.0111 O   0  0  0  0  0  0  0  0  0  0  0  0
   15.4194   11.2304   15.9040 C   0  0  0  0  0  0  0  0  0  0  0  0
   16.3348   10.6510   10.8200 C   0  0  2  0  0  0  0  0  0  0  0  0
   15.4339   10.4343   12.0895 C   0  0  1  0  0  0  0  0  0  0  0  0
   14.9589    8.9611   12.2317 C   0  0  0  0  0  0  0  0  0  0  0  0
   14.4735    8.3198   10.9549 C   0  0  1  0  0  0  0  0  0  0  0  0
   15.6167    8.3169   10.0049 C   0  0  0  0  0  0  0  0  0  0  0  0
   16.0285    9.7171    9.6379 C   0  0  0  0  0  0  0  0  0  0  0  0
   14.9896   11.2880   14.4469 C   0  0  2  0  0  0  0  0  0  0  0  0
   16.0572   10.7469   13.4745 C   0  0  0  0  0  0  0  0  0  0  0  0
   14.2136   11.3781   11.8849 C   0  0  0  0  0  0  0  0  0  0  0  0
   14.3863   12.7697   12.4735 C   0  0  0  0  0  0  0  0  0  0  0  0
   14.6339   12.7106   13.9842 C   0  0  0  0  0  0  0  0  0  0  0  0
  5  4  1  0
  4  3  1  0
  3  2  1  0
  2  1  2  0
  6  2  1  0
  9  8  1  0
 10  6  1  1
 10 15  1  0
 10 11  1  0
 11 12  1  1
 12 13  1  0
 13 14  1  0
 13  7  1  1
 14 15  1  0
 16  9  1  1
 16 20  1  0
 16 17  1  0
 18 19  1  0
 19 20  1  0
 11 17  1  0
 11 18  1  0
M  END
>  <generation_date>  (323) 
None

>  <inchikey>  (323) 
YHLFAQOJWOGOLI-SFDCQRBFSA-N

>  <ref_mols>  (323) 
cx0935a,cx0969a

>  <tags>  (323) 
['butcher: adenine', 'fragmenstein', 'select (HA) [arg144_pures]', 'arg144_pures', 'raw', 'butcher: arginine']

>  <ref_pdb>  (323) 
cx0270a

>  <alias>  (323) 
cx0935a-cx0969a

>  <submitter_name>  (323) 
None

>  <HIPPO ID>  (323) 
4607

>  <original ID>  (323) 
cx0935a-cx0969a

>  <method>  (323) 
None

>  <ref_url>  (323) 
None

>  <submitter_email>  (323) 
None

>  <original SMILES>  (323) 
COCC(=O)N[C@H]1CC[C@@H](O)C[C@]12CCC[C@H](CO)C2

$$$$
cx0935a-cx0969b
     RDKit          3D

 20 22  0  0  0  0  0  0  0  0999 V2000
   17.0379   11.9138   11.7037 C   0  0  0  0  0  0  0  0  0  0  0  0
   16.8073   10.8761   10.7136 N   0  0  0  0  0  0  0  0  0  0  0  0
   13.3457    6.5904   11.2230 O   0  0  0  0  0  0  0  0  0  0  0  0
   17.1138   13.7201   14.0043 O   0  0  0  0  0  0  0  0  0  0  0  0
   17.8561   14.4951   13.0710 C   0  0  0  0  0  0  0  0  0  0  0  0
   15.9154    9.8394   10.8909 C   0  0  0  0  0  0  0  0  0  0  0  0
   15.5915    9.3181   12.1465 C   0  0  0  0  0  0  0  0  0  0  0  0
   14.7734    8.1983   12.2710 C   0  0  0  0  0  0  0  0  0  0  0  0
   14.2253    7.6269   11.1317 C   0  0  0  0  0  0  0  0  0  0  0  0
   14.5023    8.1412    9.8783 C   0  0  0  0  0  0  0  0  0  0  0  0
   15.3714    9.2226    9.7592 C   0  0  0  0  0  0  0  0  0  0  0  0
   18.8360   13.6372   12.3020 C   0  0  0  0  0  0  0  0  0  0  0  0
   20.1885   14.0350   12.2714 C   0  0  0  0  0  0  0  0  0  0  0  0
   21.1070   13.2505   11.5969 C   0  0  0  0  0  0  0  0  0  0  0  0
   20.7129   12.1113   10.9314 C   0  0  0  0  0  0  0  0  0  0  0  0
   19.4063   11.7118   10.8979 C   0  0  0  0  0  0  0  0  0  0  0  0
   18.4414   12.4623   11.5975 C   0  0  0  0  0  0  0  0  0  0  0  0
   22.5587   13.4355   11.3886 C   0  0  0  0  0  0  0  0  0  0  0  0
   22.9094   12.0344   10.8835 C   0  0  0  0  0  0  0  0  0  0  0  0
   21.7266   11.4306   10.3211 O   0  0  0  0  0  0  0  0  0  0  0  0
  2  1  1  0
  5  4  1  0
  6  2  1  0
  6 11  1  0
  6  7  2  0
  7  8  1  0
  8  9  2  0
  9 10  1  0
  9  3  1  0
 10 11  2  0
 12  5  1  0
 12 17  2  0
 12 13  1  0
 13 14  2  0
 14 18  1  0
 14 15  1  0
 15 16  2  0
 15 20  1  0
 16 17  1  0
 18 19  1  0
 19 20  1  0
 17  1  1  0
M  END
>  <generation_date>  (324) 
None

>  <inchikey>  (324) 
UFKPYVZWYQIMHJ-UHFFFAOYSA-N

>  <ref_mols>  (324) 
cx0935a,cx0969b

>  <tags>  (324) 
['butcher: adenine', 'fragmenstein', 'select (HA) [arg144_pures]', 'arg144_pures', 'raw', 'butcher: arginine']

>  <ref_pdb>  (324) 
cx0270a

>  <alias>  (324) 
cx0935a-cx0969b

>  <submitter_name>  (324) 
None

>  <HIPPO ID>  (324) 
4608

>  <original ID>  (324) 
cx0935a-cx0969b

>  <method>  (324) 
None

>  <ref_url>  (324) 
None

>  <submitter_email>  (324) 
None

>  <original SMILES>  (324) 
OCc1cc2c(cc1CNc1ccc(O)cc1)OCC2

$$$$
cx0935a-cx1075a
     RDKit          3D

 15 15  0  0  0  0  0  0  0  0999 V2000
   17.2832   12.9645   12.0035 O   0  0  0  0  0  0  0  0  0  0  0  0
   17.9658   12.1915   11.3311 C   0  0  0  0  0  0  0  0  0  0  0  0
   19.4662   12.4396   11.1472 C   0  0  0  0  0  0  0  0  0  0  0  0
   20.1095   11.3673   10.4719 O   0  0  0  0  0  0  0  0  0  0  0  0
   21.5285   11.4900   10.5398 C   0  0  0  0  0  0  0  0  0  0  0  0
   17.4862   11.1048   10.6349 N   0  0  0  0  0  0  0  0  0  0  0  0
   13.8295    7.0807   11.4944 O   0  0  0  0  0  0  0  0  0  0  0  0
   14.4786    8.6019   14.1194 Br  0  0  0  0  0  0  0  0  0  0  0  0
   15.7417   11.2557   13.0681 N   0  0  0  0  0  0  0  0  0  0  0  0
   16.3275   10.3274   10.8560 C   0  0  0  0  0  0  0  0  0  0  0  0
   15.6056   10.2841   12.0615 C   0  0  0  0  0  0  0  0  0  0  0  0
   14.9174    9.0855   12.3262 C   0  0  0  0  0  0  0  0  0  0  0  0
   14.6104    8.1864   11.2998 C   0  0  0  0  0  0  0  0  0  0  0  0
   15.0762    8.4109   10.0243 C   0  0  0  0  0  0  0  0  0  0  0  0
   15.9986    9.4306    9.8255 C   0  0  0  0  0  0  0  0  0  0  0  0
  5  4  1  0
  4  3  1  0
  3  2  1  0
  2  1  2  0
  6  2  1  0
 10  6  1  0
 10 15  2  0
 10 11  1  0
 11 12  2  0
 12 13  1  0
 13 14  2  0
 13  7  1  0
 14 15  1  0
  8 12  1  0
  9 11  1  0
M  END
>  <generation_date>  (325) 
None

>  <inchikey>  (325) 
GTZCYIVQJXKAOZ-UHFFFAOYSA-N

>  <ref_mols>  (325) 
cx0935a,cx1075a

>  <tags>  (325) 
['butcher: adenine', 'fragmenstein', 'select (DF) [arg144_pures]', 'arg144_pures', 'raw', 'butcher: arginine']

>  <ref_pdb>  (325) 
cx0270a

>  <alias>  (325) 
cx0935a-cx1075a

>  <submitter_name>  (325) 
None

>  <HIPPO ID>  (325) 
4611

>  <original ID>  (325) 
cx0935a-cx1075a

>  <method>  (325) 
None

>  <ref_url>  (325) 
None

>  <submitter_email>  (325) 
None

>  <original SMILES>  (325) 
COCC(=O)Nc1ccc(O)c(Br)c1N

$$$$
cx0935a-cx1116a
     RDKit          3D

 14 14  0  0  0  0  0  0  0  0999 V2000
   17.3454   13.0213   12.0003 O   0  0  0  0  0  0  0  0  0  0  0  0
   18.0228   12.2334   11.3415 C   0  0  0  0  0  0  0  0  0  0  0  0
   19.5250   12.4666   11.1581 C   0  0  0  0  0  0  0  0  0  0  0  0
   20.1541   11.3855   10.4814 O   0  0  0  0  0  0  0  0  0  0  0  0
   21.5740   11.5019   10.5310 C   0  0  0  0  0  0  0  0  0  0  0  0
   17.5474   11.1349   10.6641 N   0  0  0  0  0  0  0  0  0  0  0  0
   13.8211    7.2082   11.5947 O   0  0  0  0  0  0  0  0  0  0  0  0
   15.5786   11.4644   12.9550 N   0  0  0  0  0  0  0  0  0  0  0  0
   16.3723   10.3824   10.8660 C   0  0  0  0  0  0  0  0  0  0  0  0
   15.5459   10.4424   11.9969 C   0  0  0  0  0  0  0  0  0  0  0  0
   14.7852    9.3056   12.2925 C   0  0  0  0  0  0  0  0  0  0  0  0
   14.6048    8.2967   11.3478 C   0  0  0  0  0  0  0  0  0  0  0  0
   15.1801    8.4021   10.1039 C   0  0  0  0  0  0  0  0  0  0  0  0
   16.1060    9.4140    9.8851 C   0  0  0  0  0  0  0  0  0  0  0  0
  5  4  1  0
  4  3  1  0
  3  2  1  0
  2  1  2  0
  6  2  1  0
  9  6  1  0
  9 14  2  0
  9 10  1  0
 10 11  2  0
 11 12  1  0
 12 13  2  0
 12  7  1  0
 13 14  1  0
  8 10  1  0
M  END
>  <generation_date>  (326) 
None

>  <inchikey>  (326) 
XMHJIXAUMMKGLT-UHFFFAOYSA-N

>  <ref_mols>  (326) 
cx0935a,cx1116a

>  <tags>  (326) 
['butcher: adenine', 'fragmenstein', 'select (HA) [arg144_pures]', 'select (DF) [arg144_pures]', 'arg144_pures', 'raw', 'butcher: arginine']

>  <ref_pdb>  (326) 
cx0270a

>  <alias>  (326) 
cx0935a-cx1116a

>  <submitter_name>  (326) 
None

>  <HIPPO ID>  (326) 
4613

>  <original ID>  (326) 
cx0935a-cx1116a

>  <method>  (326) 
None

>  <ref_url>  (326) 
None

>  <submitter_email>  (326) 
None

>  <original SMILES>  (326) 
COCC(=O)Nc1ccc(O)cc1N

$$$$
cx0935a-cx1116c
     RDKit          3D

 16 17  0  0  0  0  0  0  0  0999 V2000
   16.4338   12.7325   11.9951 O   0  0  0  0  0  0  0  0  0  0  0  0
   20.8403   11.0281   10.3492 C   0  0  0  0  0  0  0  0  0  0  0  0
   20.5543   13.0240   11.7369 C   0  0  0  0  0  0  0  0  0  0  0  0
   19.9096   11.9737   11.0559 C   0  0  0  0  0  0  0  0  0  0  0  0
   18.4975   11.8160   11.1564 C   0  0  0  0  0  0  0  0  0  0  0  0
   17.7995   12.7710   11.9232 C   0  0  0  0  0  0  0  0  0  0  0  0
   18.4540   13.8131   12.5827 C   0  0  0  0  0  0  0  0  0  0  0  0
   19.8332   13.9335   12.4952 C   0  0  0  0  0  0  0  0  0  0  0  0
   17.8444   10.7404   10.5053 N   0  0  0  0  0  0  0  0  0  0  0  0
   13.6526    7.1954   11.3035 O   0  0  0  0  0  0  0  0  0  0  0  0
   16.6293   10.0481   10.7278 C   0  0  0  0  0  0  0  0  0  0  0  0
   16.0891    9.8227   11.9973 C   0  0  0  0  0  0  0  0  0  0  0  0
   15.0829    8.8690   12.1867 C   0  0  0  0  0  0  0  0  0  0  0  0
   14.5644    8.1876   11.0940 C   0  0  0  0  0  0  0  0  0  0  0  0
   14.9657    8.5104    9.8132 C   0  0  0  0  0  0  0  0  0  0  0  0
   16.0099    9.4144    9.6402 C   0  0  0  0  0  0  0  0  0  0  0  0
  3  8  2  0
  3  4  1  0
  4  5  2  0
  5  6  1  0
  6  7  2  0
  7  8  1  0
  4  2  1  0
  1  6  1  0
 11  9  1  0
 11 16  1  0
 11 12  2  0
 12 13  1  0
 13 14  2  0
 14 15  1  0
 14 10  1  0
 15 16  2  0
  5  9  1  0
M  END
>  <generation_date>  (327) 
None

>  <inchikey>  (327) 
JXRCCCJCUJURBQ-UHFFFAOYSA-N

>  <ref_mols>  (327) 
cx0935a,cx1116c

>  <tags>  (327) 
['butcher: adenine', 'fragmenstein', 'select (DF) [arg144_pures]', 'arg144_pures', 'select (JA) [arg144_pures]', 'raw', 'butcher: arginine']

>  <ref_pdb>  (327) 
cx0270a

>  <alias>  (327) 
cx0935a-cx1116c

>  <submitter_name>  (327) 
None

>  <HIPPO ID>  (327) 
4614

>  <original ID>  (327) 
cx0935a-cx1116c

>  <method>  (327) 
None

>  <ref_url>  (327) 
None

>  <submitter_email>  (327) 
None

>  <original SMILES>  (327) 
Cc1cccc(O)c1Nc1ccc(O)cc1

$$$$
cx0935a-cx1118g
     RDKit          3D

 18 19  0  0  0  0  0  0  0  0999 V2000
   17.0009   11.9797   12.9744 O   0  0  0  0  0  0  0  0  0  0  0  0
   17.6074   11.9180   11.9064 C   0  0  0  0  0  0  0  0  0  0  0  0
   17.2943   11.0698   10.8646 N   0  0  0  0  0  0  0  0  0  0  0  0
   13.5594    6.9457   10.8184 O   0  0  0  0  0  0  0  0  0  0  0  0
   16.2876   10.0788   10.8980 C   0  0  0  0  0  0  0  0  0  0  0  0
   15.7654    9.5522   12.0832 C   0  0  0  0  0  0  0  0  0  0  0  0
   14.8756    8.4774   12.0506 C   0  0  0  0  0  0  0  0  0  0  0  0
   14.4420    7.9831   10.8310 C   0  0  0  0  0  0  0  0  0  0  0  0
   14.8755    8.5547    9.6490 C   0  0  0  0  0  0  0  0  0  0  0  0
   15.8305    9.5664    9.6846 C   0  0  0  0  0  0  0  0  0  0  0  0
   20.1089   11.3861   10.4918 O   0  0  0  0  0  0  0  0  0  0  0  0
   21.4853   10.9939   10.4345 C   0  0  0  0  0  0  0  0  0  0  0  0
   20.8968   13.6176   10.9920 C   0  0  0  0  0  0  0  0  0  0  0  0
   19.9177   12.6165   11.0595 C   0  0  0  0  0  0  0  0  0  0  0  0
   18.7243   12.8812   11.7414 C   0  0  0  0  0  0  0  0  0  0  0  0
   18.5797   14.1007   12.4307 C   0  0  0  0  0  0  0  0  0  0  0  0
   19.5808   15.0642   12.3984 C   0  0  0  0  0  0  0  0  0  0  0  0
   20.7308   14.8249   11.6642 C   0  0  0  0  0  0  0  0  0  0  0  0
  2  1  2  0
  3  2  1  0
  5  3  1  0
  5 10  1  0
  5  6  2  0
  6  7  1  0
  7  8  2  0
  8  9  1  0
  8  4  1  0
  9 10  2  0
 12 11  1  0
 13 18  2  0
 13 14  1  0
 14 15  2  0
 15 16  1  0
 16 17  2  0
 17 18  1  0
 14 11  1  0
  2 15  1  0
M  END
>  <generation_date>  (328) 
None

>  <inchikey>  (328) 
LXNXWBLKTWRVII-UHFFFAOYSA-N

>  <ref_mols>  (328) 
cx0935a,cx1118g

>  <tags>  (328) 
['butcher: adenine', 'fragmenstein', 'select (HA) [arg144_pures]', 'select (DF) [arg144_pures]', 'arg144_pures', 'select (JA) [arg144_pures]', 'raw', 'butcher: arginine']

>  <ref_pdb>  (328) 
cx0270a

>  <alias>  (328) 
cx0935a-cx1118g

>  <submitter_name>  (328) 
None

>  <HIPPO ID>  (328) 
4616

>  <original ID>  (328) 
cx0935a-cx1118g

>  <method>  (328) 
None

>  <ref_url>  (328) 
None

>  <submitter_email>  (328) 
None

>  <original SMILES>  (328) 
COc1ccccc1C(=O)Nc1ccc(O)cc1

$$$$
cx0935a-cx1132f
     RDKit          3D

 15 16  0  0  0  0  0  0  0  0999 V2000
   16.7042   12.7626   12.1333 O   0  0  0  0  0  0  0  0  0  0  0  0
   18.9851   13.3685   12.2681 C   0  0  0  0  0  0  0  0  0  0  0  0
   17.9997   12.5201   11.7904 C   0  0  0  0  0  0  0  0  0  0  0  0
   18.3541   11.5139   10.8994 C   0  0  0  0  0  0  0  0  0  0  0  0
   19.7117   11.3838   10.5731 C   0  0  0  0  0  0  0  0  0  0  0  0
   20.6333   12.2704   11.1044 C   0  0  0  0  0  0  0  0  0  0  0  0
   20.2906   13.2730   11.9332 N   0  0  0  0  0  0  0  0  0  0  0  0
   17.4249   10.6730   10.2701 N   0  0  0  0  0  0  0  0  0  0  0  0
   13.5302    6.9522   11.5397 O   0  0  0  0  0  0  0  0  0  0  0  0
   16.3532    9.8617   10.6603 C   0  0  0  0  0  0  0  0  0  0  0  0
   15.9673    9.6299   11.9779 C   0  0  0  0  0  0  0  0  0  0  0  0
   15.0234    8.6408   12.2646 C   0  0  0  0  0  0  0  0  0  0  0  0
   14.4165    7.9393   11.2284 C   0  0  0  0  0  0  0  0  0  0  0  0
   14.6733    8.2626    9.9102 C   0  0  0  0  0  0  0  0  0  0  0  0
   15.6411    9.2193    9.6358 C   0  0  0  0  0  0  0  0  0  0  0  0
  2  7  2  0
  2  3  1  0
  3  4  2  0
  4  5  1  0
  5  6  2  0
  6  7  1  0
  1  3  1  0
 10  8  1  0
 10 15  1  0
 10 11  2  0
 11 12  1  0
 12 13  2  0
 13 14  1  0
 13  9  1  0
 14 15  2  0
  4  8  1  0
M  END
>  <generation_date>  (329) 
None

>  <inchikey>  (329) 
MIMRXPBJLOWRMN-UHFFFAOYSA-N

>  <ref_mols>  (329) 
cx0935a,cx1132f

>  <tags>  (329) 
['butcher: adenine', 'fragmenstein', 'select (HA) [arg144_pures]', 'arg144_pures', 'raw', 'butcher: arginine']

>  <ref_pdb>  (329) 
cx0270a

>  <alias>  (329) 
cx0935a-cx1132f

>  <submitter_name>  (329) 
None

>  <HIPPO ID>  (329) 
4618

>  <original ID>  (329) 
cx0935a-cx1132f

>  <method>  (329) 
None

>  <ref_url>  (329) 
None

>  <submitter_email>  (329) 
None

>  <original SMILES>  (329) 
Oc1ccc(Nc2ccncc2O)cc1

$$$$
cx0935a-cx1213b
     RDKit          3D

 20 22  0  0  0  0  0  0  0  0999 V2000
   20.2173   11.3679   10.2103 O   0  0  0  0  0  0  0  0  0  0  0  0
   21.5393   10.9741   10.5555 C   0  0  0  0  0  0  0  0  0  0  0  0
   20.0296   15.1305   13.4092 C   0  0  0  0  0  0  0  0  0  0  0  0
   21.5196   14.9301   13.7019 C   0  0  0  0  0  0  0  0  0  0  0  0
   22.2177   13.9231   12.7900 C   0  0  0  0  0  0  0  0  0  0  0  0
   21.5020   13.7549   11.5280 N   0  0  0  0  0  0  0  0  0  0  0  0
   20.1904   13.2798   11.7558 C   0  0  0  0  0  0  0  0  0  0  0  0
   19.4016   13.9691   12.6857 C   0  0  0  0  0  0  0  0  0  0  0  0
   18.0890   13.7184   12.9145 N   0  0  0  0  0  0  0  0  0  0  0  0
   19.5780   12.2125   11.0818 C   0  0  0  0  0  0  0  0  0  0  0  0
   18.1980   11.9423   11.2616 C   0  0  0  0  0  0  0  0  0  0  0  0
   17.5245   12.7322   12.1844 C   0  0  0  0  0  0  0  0  0  0  0  0
   17.5747   10.8910   10.5622 N   0  0  0  0  0  0  0  0  0  0  0  0
   13.6335    7.0796   11.4227 O   0  0  0  0  0  0  0  0  0  0  0  0
   16.4793   10.0527   10.8216 C   0  0  0  0  0  0  0  0  0  0  0  0
   15.9684    9.8256   12.1024 C   0  0  0  0  0  0  0  0  0  0  0  0
   15.0213    8.8225   12.3231 C   0  0  0  0  0  0  0  0  0  0  0  0
   14.5254    8.0959   11.2465 C   0  0  0  0  0  0  0  0  0  0  0  0
   14.9061    8.4045    9.9554 C   0  0  0  0  0  0  0  0  0  0  0  0
   15.8878    9.3712    9.7482 C   0  0  0  0  0  0  0  0  0  0  0  0
  2  1  1  0
  3  8  1  0
  3  4  1  0
  4  5  1  0
  5  6  1  0
  6  7  1  0
  7 10  2  0
  7  8  1  0
  8  9  2  0
  9 12  1  0
 10 11  1  0
 11 12  2  0
 10  1  1  0
 15 13  1  0
 15 20  1  0
 15 16  2  0
 16 17  1  0
 17 18  2  0
 18 19  1  0
 18 14  1  0
 19 20  2  0
 11 13  1  0
M  END
>  <generation_date>  (330) 
None

>  <inchikey>  (330) 
OIDLUPDKBQACIL-UHFFFAOYSA-N

>  <ref_mols>  (330) 
cx0935a,cx1213b

>  <tags>  (330) 
['butcher: adenine', 'fragmenstein', 'select (HA) [arg144_pures]', 'arg144_pures', 'raw', 'butcher: arginine']

>  <ref_pdb>  (330) 
cx0270a

>  <alias>  (330) 
cx0935a-cx1213b

>  <submitter_name>  (330) 
None

>  <HIPPO ID>  (330) 
4619

>  <original ID>  (330) 
cx0935a-cx1213b

>  <method>  (330) 
None

>  <ref_url>  (330) 
None

>  <submitter_email>  (330) 
None

>  <original SMILES>  (330) 
COc1c(Nc2ccc(O)cc2)cnc2c1NCCC2

$$$$
cx0935a-cx1271d
     RDKit          3D

 20 22  0  0  0  0  0  0  0  0999 V2000
   17.1071   11.6875   13.2233 O   0  0  0  0  0  0  0  0  0  0  0  0
   17.5365   11.9189   12.0938 C   0  0  0  0  0  0  0  0  0  0  0  0
   17.1996   11.2116   10.9577 N   0  0  0  0  0  0  0  0  0  0  0  0
   13.6043    6.9549   10.5625 O   0  0  0  0  0  0  0  0  0  0  0  0
   16.2491   10.1551   10.9142 C   0  0  0  0  0  0  0  0  0  0  0  0
   15.7784    9.4770   12.0437 C   0  0  0  0  0  0  0  0  0  0  0  0
   14.9067    8.3910   11.9201 C   0  0  0  0  0  0  0  0  0  0  0  0
   14.4558    8.0122   10.6673 C   0  0  0  0  0  0  0  0  0  0  0  0
   14.8437    8.7172    9.5436 C   0  0  0  0  0  0  0  0  0  0  0  0
   15.7546    9.7642    9.6691 C   0  0  0  0  0  0  0  0  0  0  0  0
   20.5703   10.9757   10.4926 C   0  0  0  0  0  0  0  0  0  0  0  0
   21.6649   13.2007   10.3435 C   0  0  0  0  0  0  0  0  0  0  0  0
   21.4246   14.4704   10.7435 N   0  0  0  0  0  0  0  0  0  0  0  0
   20.2495   14.5293   11.4520 C   0  0  0  0  0  0  0  0  0  0  0  0
   19.6356   13.2650   11.3855 C   0  0  0  0  0  0  0  0  0  0  0  0
   20.5931   12.4229   10.7244 C   0  0  0  0  0  0  0  0  0  0  0  0
   18.3619   13.1364   12.0000 C   0  0  0  0  0  0  0  0  0  0  0  0
   19.7082   15.6197   12.1442 C   0  0  0  0  0  0  0  0  0  0  0  0
   18.4911   15.4499   12.7918 C   0  0  0  0  0  0  0  0  0  0  0  0
   17.8236   14.2380   12.7096 C   0  0  0  0  0  0  0  0  0  0  0  0
  2  1  2  0
  3  2  1  0
  5  3  1  0
  5 10  1  0
  5  6  2  0
  6  7  1  0
  7  8  2  0
  8  9  1  0
  8  4  1  0
  9 10  2  0
 12 13  1  0
 12 16  2  0
 13 14  1  0
 14 18  2  0
 14 15  1  0
 15 17  2  0
 15 16  1  0
 17 20  1  0
 18 19  1  0
 19 20  2  0
  2 17  1  0
 16 11  1  0
M  END
>  <generation_date>  (331) 
None

>  <inchikey>  (331) 
WZOLBARQWWYVFM-UHFFFAOYSA-N

>  <ref_mols>  (331) 
cx0935a,cx1271d

>  <tags>  (331) 
['butcher: adenine', 'fragmenstein', 'arg144_pures', 'select (JA) [arg144_pures]', 'raw', 'butcher: arginine']

>  <ref_pdb>  (331) 
cx0270a

>  <alias>  (331) 
cx0935a-cx1271d

>  <submitter_name>  (331) 
None

>  <HIPPO ID>  (331) 
4622

>  <original ID>  (331) 
cx0935a-cx1271d

>  <method>  (331) 
None

>  <ref_url>  (331) 
None

>  <submitter_email>  (331) 
None

>  <original SMILES>  (331) 
Cc1c[nH]c2cccc(C(=O)Nc3ccc(O)cc3)c12

$$$$
cx0935a-cx1278a
     RDKit          3D

 21 22  0  0  0  0  0  0  0  0999 V2000
   17.5075   13.3128   11.8558 O   0  0  0  0  0  0  0  0  0  0  0  0
   18.2083   12.3291   11.6391 C   0  0  0  0  0  0  0  0  0  0  0  0
   19.7108   12.4545   11.4052 C   0  0  0  0  0  0  0  0  0  0  0  0
   20.2041   11.3021   10.7273 O   0  0  0  0  0  0  0  0  0  0  0  0
   21.6202   11.3849   10.5754 C   0  0  0  0  0  0  0  0  0  0  0  0
   17.7065   11.0289   11.5569 N   0  0  0  0  0  0  0  0  0  0  0  0
   13.9587    7.2977   10.6655 O   0  0  0  0  0  0  0  0  0  0  0  0
   16.2365   11.0008   15.5181 O   0  0  0  0  0  0  0  0  0  0  0  0
   15.5825   10.4414   14.6544 C   0  0  0  0  0  0  0  0  0  0  0  0
   15.1344    9.1534   14.7275 O   0  0  0  0  0  0  0  0  0  0  0  0
   15.3338    8.4818   15.9639 C   0  0  0  0  0  0  0  0  0  0  0  0
   16.3639   10.8781   11.0555 C   0  0  2  0  0  0  0  0  0  0  0  0
   15.1488   10.6395   12.0053 C   0  0  1  0  0  0  0  0  0  0  0  0
   14.7912    9.1452   11.9540 C   0  0  0  0  0  0  0  0  0  0  0  0
   14.4726    8.6190   10.5721 C   0  0  1  0  0  0  0  0  0  0  0  0
   15.7703    8.6330    9.8447 C   0  0  0  0  0  0  0  0  0  0  0  0
   16.3404   10.0225    9.7687 C   0  0  0  0  0  0  0  0  0  0  0  0
   14.9632   11.1131   13.4640 C   0  0  2  0  0  0  0  0  0  0  0  0
   14.9931   12.6210   13.4433 C   0  0  0  0  0  0  0  0  0  0  0  0
   14.4663   12.9541   12.1125 N   0  0  0  0  0  0  0  0  0  0  0  0
   14.1374   11.6814   11.4507 C   0  0  0  0  0  0  0  0  0  0  0  0
  5  4  1  0
  4  3  1  0
  3  2  1  0
  2  1  2  0
  6  2  1  0
 11 10  1  0
 10  9  1  0
  9  8  2  0
 12  6  1  1
 12 17  1  0
 12 13  1  0
 13 14  1  1
 14 15  1  0
 15 16  1  0
 15  7  1  1
 16 17  1  0
 18  9  1  1
 18 19  1  0
 19 20  1  0
 20 21  1  0
 13 18  1  0
 13 21  1  0
M  END
>  <generation_date>  (332) 
None

>  <inchikey>  (332) 
XPKCWEBJKCHHHK-NJBDSQKTSA-N

>  <ref_mols>  (332) 
cx0935a,cx1278a

>  <tags>  (332) 
['butcher: adenine', 'fragmenstein', 'select (HA) [arg144_pures]', 'select (DF) [arg144_pures]', 'arg144_pures', 'raw', 'butcher: arginine']

>  <ref_pdb>  (332) 
cx0270a

>  <alias>  (332) 
cx0935a-cx1278a

>  <submitter_name>  (332) 
None

>  <HIPPO ID>  (332) 
4624

>  <original ID>  (332) 
cx0935a-cx1278a

>  <method>  (332) 
None

>  <ref_url>  (332) 
None

>  <submitter_email>  (332) 
None

>  <original SMILES>  (332) 
COCC(=O)N[C@H]1CC[C@@H](O)C[C@]12CNC[C@@H]2C(=O)OC

$$$$
cx0935a-cx1338a
     RDKit          3D

 18 19  0  0  0  0  0  0  0  0999 V2000
   17.7695   12.5056   12.3971 O   0  0  0  0  0  0  0  0  0  0  0  0
   18.2414   12.0148   11.3745 C   0  0  0  0  0  0  0  0  0  0  0  0
   19.6847   12.3603   11.0277 C   0  0  0  0  0  0  0  0  0  0  0  0
   20.3418   11.2989   10.3545 O   0  0  0  0  0  0  0  0  0  0  0  0
   21.7552   11.4894   10.3855 C   0  0  0  0  0  0  0  0  0  0  0  0
   17.6428   11.1401   10.4757 N   0  0  0  0  0  0  0  0  0  0  0  0
   13.9639    7.3863   11.8644 O   0  0  0  0  0  0  0  0  0  0  0  0
   14.6047   13.4453   13.6731 N   0  0  0  0  0  0  0  0  0  0  0  0
   16.4136   10.4498   10.6316 C   0  0  0  0  0  0  0  0  0  0  0  0
   15.5467   10.6873   11.6792 C   0  0  0  0  0  0  0  0  0  0  0  0
   14.8935    9.5906   12.2352 C   0  0  0  0  0  0  0  0  0  0  0  0
   14.7333    8.4346   11.4327 C   0  0  0  0  0  0  0  0  0  0  0  0
   15.2529    8.3973   10.1493 C   0  0  0  0  0  0  0  0  0  0  0  0
   16.1528    9.3839    9.7747 C   0  0  0  0  0  0  0  0  0  0  0  0
   14.7797   12.1237   13.3017 C   0  0  0  0  0  0  0  0  0  0  0  0
   15.3524   11.9355   12.1225 N   0  0  0  0  0  0  0  0  0  0  0  0
   14.4116    9.7847   13.5438 C   0  0  0  0  0  0  0  0  0  0  0  0
   14.3913   11.0670   14.0909 C   0  0  0  0  0  0  0  0  0  0  0  0
  5  4  1  0
  4  3  1  0
  3  2  1  0
  2  1  2  0
  6  2  1  0
  9  6  1  0
  9 14  2  0
  9 10  1  0
 10 11  2  0
 11 12  1  0
 12 13  2  0
 12  7  1  0
 13 14  1  0
 15  8  1  0
 15 18  1  0
 15 16  2  0
 17 18  2  0
 11 17  1  0
 10 16  1  0
M  END
>  <generation_date>  (333) 
None

>  <inchikey>  (333) 
GFRGFEKAWRJWKE-UHFFFAOYSA-N

>  <ref_mols>  (333) 
cx1338a,cx0935a

>  <tags>  (333) 
['butcher: adenine', 'fragmenstein', 'select (DF) [arg144_pures]', 'arg144_pures', 'raw', 'butcher: arginine']

>  <ref_pdb>  (333) 
cx0270a

>  <alias>  (333) 
cx0935a-cx1338a

>  <submitter_name>  (333) 
None

>  <HIPPO ID>  (333) 
4631

>  <original ID>  (333) 
cx0935a-cx1338a

>  <method>  (333) 
None

>  <ref_url>  (333) 
None

>  <submitter_email>  (333) 
None

>  <original SMILES>  (333) 
COCC(=O)Nc1ccc(O)c2ccc(N)nc12

$$$$
cx0935a-cx1338c
     RDKit          3D

 20 22  0  0  0  0  0  0  0  0999 V2000
   17.1162   11.8583   11.2768 C   0  0  0  0  0  0  0  0  0  0  0  0
   16.9018   10.6707   12.0568 N   0  0  0  0  0  0  0  0  0  0  0  0
   13.4868    6.7113   10.1443 O   0  0  0  0  0  0  0  0  0  0  0  0
   23.4491   13.1355   10.3380 N   0  0  0  0  0  0  0  0  0  0  0  0
   15.9821    9.7467   11.5208 C   0  0  0  0  0  0  0  0  0  0  0  0
   15.4322    8.8030   12.3960 C   0  0  0  0  0  0  0  0  0  0  0  0
   14.6030    7.7849   11.9280 C   0  0  0  0  0  0  0  0  0  0  0  0
   14.3121    7.7044   10.5753 C   0  0  0  0  0  0  0  0  0  0  0  0
   14.8451    8.6184    9.6849 C   0  0  0  0  0  0  0  0  0  0  0  0
   15.7050    9.6107   10.1526 C   0  0  0  0  0  0  0  0  0  0  0  0
   22.1277   12.9970   10.7328 C   0  0  0  0  0  0  0  0  0  0  0  0
   21.5851   13.9992   11.4470 N   0  0  0  0  0  0  0  0  0  0  0  0
   20.3137   13.8789   11.8720 C   0  0  0  0  0  0  0  0  0  0  0  0
   19.4831   12.7971   11.5188 C   0  0  0  0  0  0  0  0  0  0  0  0
   20.0954   11.7554   10.7991 C   0  0  0  0  0  0  0  0  0  0  0  0
   21.4374   11.8365   10.4452 C   0  0  0  0  0  0  0  0  0  0  0  0
   19.7856   14.8810   12.6735 C   0  0  0  0  0  0  0  0  0  0  0  0
   18.1061   12.8143   11.8874 C   0  0  0  0  0  0  0  0  0  0  0  0
   17.6196   13.8320   12.7207 C   0  0  0  0  0  0  0  0  0  0  0  0
   18.4630   14.8582   13.1204 C   0  0  0  0  0  0  0  0  0  0  0  0
  2  1  1  0
  5  2  1  0
  5 10  1  0
  5  6  2  0
  6  7  1  0
  7  8  2  0
  8  9  1  0
  8  3  1  0
  9 10  2  0
 11  4  1  0
 11 16  2  0
 11 12  1  0
 12 13  2  0
 13 17  1  0
 13 14  1  0
 14 15  2  0
 14 18  1  0
 15 16  1  0
 17 20  2  0
 18 19  2  0
 19 20  1  0
 18  1  1  0
M  END
>  <generation_date>  (334) 
None

>  <inchikey>  (334) 
OTAYIHAXQCNBJL-UHFFFAOYSA-N

>  <ref_mols>  (334) 
cx0935a,cx1338c

>  <tags>  (334) 
['butcher: adenine', 'fragmenstein', 'select (DF) [arg144_pures]', 'arg144_pures', 'raw', 'butcher: arginine']

>  <ref_pdb>  (334) 
cx0270a

>  <alias>  (334) 
cx0935a-cx1338c

>  <submitter_name>  (334) 
None

>  <HIPPO ID>  (334) 
4632

>  <original ID>  (334) 
cx0935a-cx1338c

>  <method>  (334) 
None

>  <ref_url>  (334) 
None

>  <submitter_email>  (334) 
None

>  <original SMILES>  (334) 
Nc1ccc2c(CNc3ccc(O)cc3)cccc2n1

$$$$
cx0935a-cx1353a
     RDKit          3D

 14 14  0  0  0  0  0  0  0  0999 V2000
   17.3404   13.0048   11.9950 O   0  0  0  0  0  0  0  0  0  0  0  0
   18.0197   12.2194   11.3349 C   0  0  0  0  0  0  0  0  0  0  0  0
   19.5213   12.4575   11.1526 C   0  0  0  0  0  0  0  0  0  0  0  0
   20.1554   11.3787   10.4774 O   0  0  0  0  0  0  0  0  0  0  0  0
   21.5748   11.5002   10.5299 C   0  0  0  0  0  0  0  0  0  0  0  0
   17.5465   11.1208   10.6557 N   0  0  0  0  0  0  0  0  0  0  0  0
   13.8119    7.1951   11.5739 O   0  0  0  0  0  0  0  0  0  0  0  0
   15.5936   11.4311   12.9576 N   0  0  0  0  0  0  0  0  0  0  0  0
   16.3721   10.3661   10.8564 C   0  0  0  0  0  0  0  0  0  0  0  0
   15.5510   10.4183   11.9913 C   0  0  0  0  0  0  0  0  0  0  0  0
   14.7880    9.2821   12.2827 C   0  0  0  0  0  0  0  0  0  0  0  0
   14.5997    8.2816   11.3318 C   0  0  0  0  0  0  0  0  0  0  0  0
   15.1715    8.3942   10.0869 C   0  0  0  0  0  0  0  0  0  0  0  0
   16.1000    9.4048    9.8708 C   0  0  0  0  0  0  0  0  0  0  0  0
  5  4  1  0
  4  3  1  0
  3  2  1  0
  2  1  2  0
  6  2  1  0
  9  6  1  0
  9 14  2  0
  9 10  1  0
 10 11  2  0
 11 12  1  0
 12 13  2  0
 12  7  1  0
 13 14  1  0
  8 10  1  0
M  END
>  <generation_date>  (335) 
None

>  <inchikey>  (335) 
XMHJIXAUMMKGLT-UHFFFAOYSA-N

>  <ref_mols>  (335) 
cx0935a,cx1353a

>  <tags>  (335) 
['butcher: adenine', 'fragmenstein', 'select (HA) [arg144_pures]', 'arg144_pures', 'raw', 'butcher: arginine']

>  <ref_pdb>  (335) 
cx0270a

>  <alias>  (335) 
cx0935a-cx1353a

>  <submitter_name>  (335) 
None

>  <HIPPO ID>  (335) 
4633

>  <original ID>  (335) 
cx0935a-cx1353a

>  <method>  (335) 
None

>  <ref_url>  (335) 
None

>  <submitter_email>  (335) 
None

>  <original SMILES>  (335) 
COCC(=O)Nc1ccc(O)cc1N

$$$$
cx0935a-cx1372a
     RDKit          3D

 17 17  0  0  0  0  0  0  0  0999 V2000
   17.4460   12.4738   12.2563 O   0  0  0  0  0  0  0  0  0  0  0  0
   18.0975   11.9495   11.3522 C   0  0  0  0  0  0  0  0  0  0  0  0
   19.5484   12.3575   11.1008 C   0  0  0  0  0  0  0  0  0  0  0  0
   20.2584   11.3281   10.4260 O   0  0  0  0  0  0  0  0  0  0  0  0
   21.6653   11.5520   10.4730 C   0  0  0  0  0  0  0  0  0  0  0  0
   17.6338   10.9566   10.5059 N   0  0  0  0  0  0  0  0  0  0  0  0
   13.9319    7.2421   11.9197 O   0  0  0  0  0  0  0  0  0  0  0  0
   14.5680    9.4265   13.9980 Cl  0  0  0  0  0  0  0  0  0  0  0  0
   14.6555   11.6400   11.3327 C   0  0  0  0  0  0  0  0  0  0  0  0
   14.3661   11.8529   10.1585 O   0  0  0  0  0  0  0  0  0  0  0  0
   14.1551   12.4151   12.3313 N   0  0  0  0  0  0  0  0  0  0  0  0
   16.4272   10.2534   10.6704 C   0  0  0  0  0  0  0  0  0  0  0  0
   15.5763   10.5213   11.7346 C   0  0  0  0  0  0  0  0  0  0  0  0
   14.9127    9.4340   12.2924 C   0  0  0  0  0  0  0  0  0  0  0  0
   14.6656    8.3130   11.4926 C   0  0  0  0  0  0  0  0  0  0  0  0
   15.1490    8.2711   10.1941 C   0  0  0  0  0  0  0  0  0  0  0  0
   16.0956    9.2166    9.8035 C   0  0  0  0  0  0  0  0  0  0  0  0
  5  4  1  0
  4  3  1  0
  3  2  1  0
  2  1  2  0
  6  2  1  0
 11  9  1  0
 10  9  2  0
 12  6  1  0
 12 17  2  0
 12 13  1  0
 13 14  2  0
 14 15  1  0
 15 16  2  0
 15  7  1  0
 16 17  1  0
  8 14  1  0
  9 13  1  0
M  END
>  <generation_date>  (336) 
None

>  <inchikey>  (336) 
JVZUSVQRUZFJRS-UHFFFAOYSA-N

>  <ref_mols>  (336) 
cx1372a,cx0935a

>  <tags>  (336) 
['butcher: adenine', 'fragmenstein', 'select (HA) [arg144_pures]', 'arg144_pures', 'raw', 'butcher: arginine']

>  <ref_pdb>  (336) 
cx0270a

>  <alias>  (336) 
cx0935a-cx1372a

>  <submitter_name>  (336) 
None

>  <HIPPO ID>  (336) 
4636

>  <original ID>  (336) 
cx0935a-cx1372a

>  <method>  (336) 
None

>  <ref_url>  (336) 
None

>  <submitter_email>  (336) 
None

>  <original SMILES>  (336) 
COCC(=O)Nc1ccc(O)c(Cl)c1C(N)=O

$$$$
cx0935a-cx1379a
     RDKit          3D

 20 21  0  0  0  0  0  0  0  0999 V2000
   17.4632   13.3334   11.8069 O   0  0  0  0  0  0  0  0  0  0  0  0
   18.1854   12.3674   11.6035 C   0  0  0  0  0  0  0  0  0  0  0  0
   19.6901   12.5232   11.3814 C   0  0  0  0  0  0  0  0  0  0  0  0
   20.2066   11.3591   10.7342 O   0  0  0  0  0  0  0  0  0  0  0  0
   21.6223   11.4499   10.5884 C   0  0  0  0  0  0  0  0  0  0  0  0
   17.7505   11.0520   11.5685 N   0  0  0  0  0  0  0  0  0  0  0  0
   14.3957    7.1573   10.1667 O   0  0  0  0  0  0  0  0  0  0  0  0
   15.9651    9.6973   15.7532 O   0  0  0  0  0  0  0  0  0  0  0  0
   15.9144    9.4060   14.3656 C   0  0  0  0  0  0  0  0  0  0  0  0
   16.4400   10.7129   11.0591 C   0  0  2  0  0  0  0  0  0  0  0  0
   15.2245   10.3920   12.0206 C   0  0  1  0  0  0  0  0  0  0  0  0
   14.7913    8.9118   11.7256 C   0  0  0  0  0  0  0  0  0  0  0  0
   14.4174    8.5779   10.2767 C   0  0  1  0  0  0  0  0  0  0  0  0
   15.3803    9.2235    9.3102 C   0  0  0  0  0  0  0  0  0  0  0  0
   16.6491    9.5998   10.0289 C   0  0  0  0  0  0  0  0  0  0  0  0
   15.2471   10.5423   13.5915 C   0  0  2  0  0  0  0  0  0  0  0  0
   14.1414   11.4280   11.6123 C   0  0  0  0  0  0  0  0  0  0  0  0
   14.4137   12.8668   12.0165 C   0  0  0  0  0  0  0  0  0  0  0  0
   14.6717   13.0088   13.5066 C   0  0  0  0  0  0  0  0  0  0  0  0
   15.6192   11.9508   14.0656 C   0  0  0  0  0  0  0  0  0  0  0  0
  5  4  1  0
  4  3  1  0
  3  2  1  0
  2  1  2  0
  6  2  1  0
  9  8  1  0
 10  6  1  1
 10 15  1  0
 10 11  1  0
 11 12  1  1
 12 13  1  0
 13 14  1  0
 13  7  1  1
 14 15  1  0
 16  9  1  1
 16 20  1  0
 17 18  1  0
 18 19  1  0
 19 20  1  0
 11 16  1  0
 11 17  1  0
M  END
>  <generation_date>  (337) 
None

>  <inchikey>  (337) 
NOTHHIFKOUUDHK-CXTNEJHOSA-N

>  <ref_mols>  (337) 
cx0935a,cx1379a

>  <tags>  (337) 
['butcher: adenine', 'fragmenstein', 'select (HA) [arg144_pures]', 'arg144_pures', 'raw', 'butcher: arginine']

>  <ref_pdb>  (337) 
cx0270a

>  <alias>  (337) 
cx0935a-cx1379a

>  <submitter_name>  (337) 
None

>  <HIPPO ID>  (337) 
4637

>  <original ID>  (337) 
cx0935a-cx1379a

>  <method>  (337) 
None

>  <ref_url>  (337) 
None

>  <submitter_email>  (337) 
None

>  <original SMILES>  (337) 
COCC(=O)N[C@H]1CC[C@@H](O)C[C@]12CCCC[C@@H]2CO

$$$$
cx0935a-cx1379g
     RDKit          3D

 22 24  0  0  0  0  0  0  0  0999 V2000
   20.6391   10.7325   10.0410 C   0  0  0  0  0  0  0  0  0  0  0  0
   18.9744   15.4299   14.0750 O   0  0  0  0  0  0  0  0  0  0  0  0
   20.3804   15.2070   14.0759 C   0  0  0  0  0  0  0  0  0  0  0  0
   20.8767   14.4216   12.8902 C   0  0  0  0  0  0  0  0  0  0  0  0
   20.0862   13.4810   12.2116 C   0  0  0  0  0  0  0  0  0  0  0  0
   20.5458   12.8167   11.0647 C   0  0  0  0  0  0  0  0  0  0  0  0
   21.8405   13.1486   10.6128 C   0  0  0  0  0  0  0  0  0  0  0  0
   22.6793   13.9799   11.3434 C   0  0  0  0  0  0  0  0  0  0  0  0
   22.2002   14.6110   12.4804 C   0  0  0  0  0  0  0  0  0  0  0  0
   18.8689   13.2106   12.7808 O   0  0  0  0  0  0  0  0  0  0  0  0
   19.7518   11.8428   10.3793 N   0  0  0  0  0  0  0  0  0  0  0  0
   18.4883   11.4728   11.0840 C   0  0  1  0  0  0  0  0  0  0  0  0
   17.9398   12.7145   11.8383 C   0  0  1  0  0  0  0  0  0  0  0  0
   17.4424   10.9269   10.2307 N   0  0  0  0  0  0  0  0  0  0  0  0
   13.6124    7.0435   11.3521 O   0  0  0  0  0  0  0  0  0  0  0  0
   16.4739    9.9954   10.5938 C   0  0  0  0  0  0  0  0  0  0  0  0
   16.0901    9.6894   11.9021 C   0  0  0  0  0  0  0  0  0  0  0  0
   15.1420    8.6971   12.1781 C   0  0  0  0  0  0  0  0  0  0  0  0
   14.5176    8.0374   11.1311 C   0  0  0  0  0  0  0  0  0  0  0  0
   14.7753    8.4063    9.8270 C   0  0  0  0  0  0  0  0  0  0  0  0
   15.7427    9.3788    9.5700 C   0  0  0  0  0  0  0  0  0  0  0  0
   16.7177   12.4961   12.5365 O   0  0  0  0  0  0  0  0  0  0  0  0
  3  2  1  0
  4  3  1  0
  4  9  2  0
  4  5  1  0
  5 10  1  0
  5  6  2  0
  6  7  1  0
  6 11  1  0
  7  8  2  0
  8  9  1  0
 10 13  1  0
 11 12  1  0
 12 13  1  0
 11  1  1  0
 16 14  1  0
 16 21  1  0
 16 17  2  0
 17 18  1  0
 18 19  2  0
 19 20  1  0
 19 15  1  0
 20 21  2  0
 12 14  1  6
 13 22  1  1
M  END
>  <generation_date>  (338) 
None

>  <inchikey>  (338) 
NFWYJGDOYHNCOW-HOTGVXAUSA-N

>  <ref_mols>  (338) 
cx0935a,cx1379g

>  <tags>  (338) 
['butcher: adenine', 'fragmenstein', 'select (DF) [arg144_pures]', 'arg144_pures', 'raw', 'butcher: arginine']

>  <ref_pdb>  (338) 
cx0270a

>  <alias>  (338) 
cx0935a-cx1379g

>  <submitter_name>  (338) 
None

>  <HIPPO ID>  (338) 
4639

>  <original ID>  (338) 
cx0935a-cx1379g

>  <method>  (338) 
None

>  <ref_url>  (338) 
None

>  <submitter_email>  (338) 
None

>  <original SMILES>  (338) 
CN1c2cccc(CO)c2O[C@H](O)[C@H]1Nc1ccc(O)cc1

$$$$
cx0935a-cx1402b
     RDKit          3D

 17 19  0  0  0  0  0  0  0  0999 V2000
   17.3543   11.1225   10.5088 N   0  0  0  0  0  0  0  0  0  0  0  0
   13.7025    7.0659   11.5899 O   0  0  0  0  0  0  0  0  0  0  0  0
   16.4138   10.1334   10.8513 C   0  0  0  0  0  0  0  0  0  0  0  0
   15.9596    9.9091   12.1507 C   0  0  0  0  0  0  0  0  0  0  0  0
   15.0660    8.8672   12.4181 C   0  0  0  0  0  0  0  0  0  0  0  0
   14.5729    8.0930   11.3705 C   0  0  0  0  0  0  0  0  0  0  0  0
   14.9201    8.3715   10.0628 C   0  0  0  0  0  0  0  0  0  0  0  0
   15.8396    9.3855    9.8090 C   0  0  0  0  0  0  0  0  0  0  0  0
   20.2663   11.1647   10.4637 N   0  0  0  0  0  0  0  0  0  0  0  0
   19.4921   11.9709   11.1527 C   0  0  0  0  0  0  0  0  0  0  0  0
   20.3256   13.0364   11.7929 C   0  0  0  0  0  0  0  0  0  0  0  0
   21.6631   12.7386   11.4124 C   0  0  0  0  0  0  0  0  0  0  0  0
   21.5592   11.6449   10.6415 C   0  0  0  0  0  0  0  0  0  0  0  0
   18.0987   11.9386   11.3352 N   0  0  0  0  0  0  0  0  0  0  0  0
   19.7212   13.9750   12.5273 C   0  0  0  0  0  0  0  0  0  0  0  0
   18.2709   13.9516   12.6703 C   0  0  0  0  0  0  0  0  0  0  0  0
   17.5448   12.9785   12.0865 C   0  0  0  0  0  0  0  0  0  0  0  0
  3  1  1  0
  3  8  1  0
  3  4  2  0
  4  5  1  0
  5  6  2  0
  6  7  1  0
  6  2  1  0
  7  8  2  0
  9 10  2  0
  9 13  1  0
 10 14  1  0
 10 11  1  0
 11 12  1  0
 11 15  2  0
 12 13  2  0
 14 17  1  0
 15 16  1  0
 16 17  2  0
  1 14  1  0
M  END
>  <generation_date>  (339) 
None

>  <inchikey>  (339) 
PAYFJUUAHSNYFV-UHFFFAOYSA-N

>  <ref_mols>  (339) 
cx1402b,cx0935a

>  <tags>  (339) 
['butcher: adenine', 'fragmenstein', 'select (DF) [arg144_pures]', 'arg144_pures', 'raw', 'butcher: arginine']

>  <ref_pdb>  (339) 
cx0270a

>  <alias>  (339) 
cx0935a-cx1402b

>  <submitter_name>  (339) 
None

>  <HIPPO ID>  (339) 
4640

>  <original ID>  (339) 
cx0935a-cx1402b

>  <method>  (339) 
None

>  <ref_url>  (339) 
None

>  <submitter_email>  (339) 
None

>  <original SMILES>  (339) 
Oc1ccc(Nn2cccc3ccnc2-3)cc1

$$$$
cx0935a-cx1402f
     RDKit          3D

 20 22  0  0  0  0  0  0  0  0999 V2000
   16.7757   12.3537   12.7489 O   0  0  0  0  0  0  0  0  0  0  0  0
   17.4449   12.0270   11.7719 C   0  0  0  0  0  0  0  0  0  0  0  0
   17.0752   11.1005   10.8271 N   0  0  0  0  0  0  0  0  0  0  0  0
   13.5645    6.8422   11.2849 O   0  0  0  0  0  0  0  0  0  0  0  0
   16.1134   10.0921   10.9806 C   0  0  0  0  0  0  0  0  0  0  0  0
   15.6310    9.7067   12.2327 C   0  0  0  0  0  0  0  0  0  0  0  0
   14.8203    8.5816   12.3535 C   0  0  0  0  0  0  0  0  0  0  0  0
   14.4210    7.9000   11.2101 C   0  0  0  0  0  0  0  0  0  0  0  0
   14.8371    8.3138    9.9564 C   0  0  0  0  0  0  0  0  0  0  0  0
   15.7188    9.3859    9.8424 C   0  0  0  0  0  0  0  0  0  0  0  0
   19.5523   10.8260   10.1128 O   0  0  0  0  0  0  0  0  0  0  0  0
   22.0678   11.9260   10.1740 N   0  0  0  0  0  0  0  0  0  0  0  0
   21.0444   12.4482   10.7957 C   0  0  0  0  0  0  0  0  0  0  0  0
   21.4431   13.6189   11.6097 C   0  0  0  0  0  0  0  0  0  0  0  0
   22.8449   13.7171   11.3997 C   0  0  0  0  0  0  0  0  0  0  0  0
   23.1410   12.7165   10.5517 C   0  0  0  0  0  0  0  0  0  0  0  0
   19.7396   12.0385   10.7544 N   0  0  0  0  0  0  0  0  0  0  0  0
   20.4932   14.2485   12.3111 C   0  0  0  0  0  0  0  0  0  0  0  0
   19.1215   13.7290   12.3096 C   0  0  0  0  0  0  0  0  0  0  0  0
   18.7928   12.6424   11.5666 C   0  0  0  0  0  0  0  0  0  0  0  0
  2  1  2  0
  3  2  1  0
  5  3  1  0
  5 10  1  0
  5  6  2  0
  6  7  1  0
  7  8  2  0
  8  9  1  0
  8  4  1  0
  9 10  2  0
 12 13  2  0
 12 16  1  0
 13 17  1  0
 13 14  1  0
 14 15  1  0
 14 18  2  0
 15 16  2  0
 17 20  1  0
 18 19  1  0
 19 20  2  0
 17 11  1  0
  2 20  1  0
M  END
>  <generation_date>  (340) 
None

>  <inchikey>  (340) 
HMSVYRBFIWFWJE-UHFFFAOYSA-N

>  <ref_mols>  (340) 
cx0935a,cx1402f

>  <tags>  (340) 
['butcher: adenine', 'fragmenstein', 'select (HA) [arg144_pures]', 'arg144_pures', 'select (JA) [arg144_pures]', 'raw', 'butcher: arginine']

>  <ref_pdb>  (340) 
cx0270a

>  <alias>  (340) 
cx0935a-cx1402f

>  <submitter_name>  (340) 
None

>  <HIPPO ID>  (340) 
4642

>  <original ID>  (340) 
cx0935a-cx1402f

>  <method>  (340) 
None

>  <ref_url>  (340) 
None

>  <submitter_email>  (340) 
None

>  <original SMILES>  (340) 
O=C(Nc1ccc(O)cc1)c1ccc2ccnc-2n1O

$$$$
cx0935a-cx1440b
     RDKit          3D

 19 21  0  0  0  0  0  0  0  0999 V2000
   16.7547   12.8372   12.1707 O   0  0  0  0  0  0  0  0  0  0  0  0
   20.6439   12.2031   11.0447 C   0  0  0  0  0  0  0  0  0  0  0  0
   20.4057   13.2909   11.8767 C   0  0  0  0  0  0  0  0  0  0  0  0
   19.0745   13.5333   12.2793 C   0  0  0  0  0  0  0  0  0  0  0  0
   18.0682   12.6449   11.8261 C   0  0  0  0  0  0  0  0  0  0  0  0
   18.4029   11.5925   10.9674 C   0  0  0  0  0  0  0  0  0  0  0  0
   19.6790   11.3815   10.5783 N   0  0  0  0  0  0  0  0  0  0  0  0
   21.4504   14.1238   12.3127 C   0  0  0  0  0  0  0  0  0  0  0  0
   18.8378   14.6481   13.1174 C   0  0  0  0  0  0  0  0  0  0  0  0
   19.8821   15.4755   13.5402 C   0  0  0  0  0  0  0  0  0  0  0  0
   21.1877   15.2096   13.1441 C   0  0  0  0  0  0  0  0  0  0  0  0
   17.4731   10.7761   10.3271 N   0  0  0  0  0  0  0  0  0  0  0  0
   13.6150    7.0295   11.6470 O   0  0  0  0  0  0  0  0  0  0  0  0
   16.4045    9.9665   10.7339 C   0  0  0  0  0  0  0  0  0  0  0  0
   15.9745    9.8155   12.0492 C   0  0  0  0  0  0  0  0  0  0  0  0
   15.0448    8.8236   12.3744 C   0  0  0  0  0  0  0  0  0  0  0  0
   14.4932    8.0353   11.3669 C   0  0  0  0  0  0  0  0  0  0  0  0
   14.7893    8.2756   10.0399 C   0  0  0  0  0  0  0  0  0  0  0  0
   15.7407    9.2408    9.7303 C   0  0  0  0  0  0  0  0  0  0  0  0
  2  7  2  0
  2  3  1  0
  3  8  2  0
  3  4  1  0
  4  5  1  0
  4  9  2  0
  5  6  2  0
  6  7  1  0
  8 11  1  0
  9 10  1  0
 10 11  2  0
  1  5  1  0
 14 12  1  0
 14 19  1  0
 14 15  2  0
 15 16  1  0
 16 17  2  0
 17 18  1  0
 17 13  1  0
 18 19  2  0
  6 12  1  0
M  END
>  <generation_date>  (341) 
None

>  <inchikey>  (341) 
FXMHNJCWYFUXEW-UHFFFAOYSA-N

>  <ref_mols>  (341) 
cx0935a,cx1440b

>  <tags>  (341) 
['butcher: adenine', 'fragmenstein', 'select (HA) [arg144_pures]', 'arg144_pures', 'raw', 'butcher: arginine']

>  <ref_pdb>  (341) 
cx0270a

>  <alias>  (341) 
cx0935a-cx1440b

>  <submitter_name>  (341) 
None

>  <HIPPO ID>  (341) 
4644

>  <original ID>  (341) 
cx0935a-cx1440b

>  <method>  (341) 
None

>  <ref_url>  (341) 
None

>  <submitter_email>  (341) 
None

>  <original SMILES>  (341) 
Oc1ccc(Nc2ncc3ccccc3c2O)cc1

$$$$
cx0935a-cx1444a
     RDKit          3D

 18 19  0  0  0  0  0  0  0  0999 V2000
   17.4416   13.2360   11.6628 O   0  0  0  0  0  0  0  0  0  0  0  0
   18.1763   12.2946   11.3901 C   0  0  0  0  0  0  0  0  0  0  0  0
   19.6856   12.4699   11.2457 C   0  0  0  0  0  0  0  0  0  0  0  0
   20.2640   11.3372   10.6035 O   0  0  0  0  0  0  0  0  0  0  0  0
   21.6828   11.4616   10.5445 C   0  0  0  0  0  0  0  0  0  0  0  0
   17.7340   11.0060   11.1948 N   0  0  0  0  0  0  0  0  0  0  0  0
   15.1011    6.8773   11.1581 O   0  0  0  0  0  0  0  0  0  0  0  0
   16.3319   10.6864   10.9816 C   0  0  2  0  0  0  0  0  0  0  0  0
   15.4360   10.4658   12.2681 C   0  0  0  0  0  0  0  0  0  0  0  0
   15.0883    8.9349   12.3897 C   0  0  0  0  0  0  0  0  0  0  0  0
   14.5667    8.1987   11.1515 C   0  0  1  0  0  0  0  0  0  0  0  0
   14.9118    8.8846    9.8527 C   0  0  0  0  0  0  0  0  0  0  0  0
   16.2764    9.5053    9.9983 C   0  0  0  0  0  0  0  0  0  0  0  0
   16.0175   10.8329   13.6669 C   0  0  0  0  0  0  0  0  0  0  0  0
   14.1647   11.3147   12.0867 C   0  0  0  0  0  0  0  0  0  0  0  0
   14.2924   12.7941   12.4057 C   0  0  0  0  0  0  0  0  0  0  0  0
   14.6506   12.9869   13.8614 C   0  0  0  0  0  0  0  0  0  0  0  0
   15.9424   12.2700   14.1832 C   0  0  0  0  0  0  0  0  0  0  0  0
  5  4  1  0
  4  3  1  0
  3  2  1  0
  2  1  2  0
  6  2  1  0
  8  6  1  1
  8 13  1  0
  8  9  1  0
  9 10  1  0
 10 11  1  0
 11 12  1  0
 11  7  1  6
 12 13  1  0
 14 18  1  0
 15 16  1  0
 16 17  1  0
 17 18  1  0
  9 14  1  0
  9 15  1  0
M  END
>  <generation_date>  (342) 
None

>  <inchikey>  (342) 
CIPQOZURUVCWIO-NEPJUHHUSA-N

>  <ref_mols>  (342) 
cx1444a,cx0935a

>  <tags>  (342) 
['butcher: adenine', 'fragmenstein', 'select (HA) [arg144_pures]', 'select (DF) [arg144_pures]', 'arg144_pures', 'select (JA) [arg144_pures]', 'raw', 'butcher: arginine']

>  <ref_pdb>  (342) 
cx0270a

>  <alias>  (342) 
cx0935a-cx1444a

>  <submitter_name>  (342) 
None

>  <HIPPO ID>  (342) 
4647

>  <original ID>  (342) 
cx0935a-cx1444a

>  <method>  (342) 
None

>  <ref_url>  (342) 
None

>  <submitter_email>  (342) 
None

>  <original SMILES>  (342) 
COCC(=O)N[C@H]1CC[C@@H](O)CC12CCCCC2

$$$$
cx0969a-cx0692a
     RDKit          3D

 17 18  0  0  0  0  0  0  0  0999 V2000
   16.5979   11.0130   15.7649 O   0  0  0  0  0  0  0  0  0  0  0  0
   15.2132   11.2052   15.5172 C   0  0  0  0  0  0  0  0  0  0  0  0
   17.2052   12.6207   11.6841 O   0  0  0  0  0  0  0  0  0  0  0  0
   17.9463   11.8067   11.1407 C   0  0  0  0  0  0  0  0  0  0  0  0
   19.4287   12.1547   11.0048 C   0  0  0  0  0  0  0  0  0  0  0  0
   20.1995   11.1127   10.4315 O   0  0  0  0  0  0  0  0  0  0  0  0
   21.5914   11.4011   10.5407 C   0  0  0  0  0  0  0  0  0  0  0  0
   17.5948   10.5516   10.6659 N   0  0  0  0  0  0  0  0  0  0  0  0
   14.9733   11.2416   14.0359 C   0  0  0  0  0  0  0  0  0  0  0  0
   15.6066   10.3101   13.2026 C   0  0  0  0  0  0  0  0  0  0  0  0
   15.4455   10.4417   11.8364 C   0  0  0  0  0  0  0  0  0  0  0  0
   14.5981   11.3981   11.2928 C   0  0  0  0  0  0  0  0  0  0  0  0
   13.9599   12.3209   12.0829 C   0  0  0  0  0  0  0  0  0  0  0  0
   14.1540   12.2415   13.4657 C   0  0  0  0  0  0  0  0  0  0  0  0
   16.2761    9.8967   10.7367 C   0  0  1  0  0  0  0  0  0  0  0  0
   15.3067   10.1980    9.5882 C   0  0  0  0  0  0  0  0  0  0  0  0
   14.5600   11.3909    9.9206 O   0  0  0  0  0  0  0  0  0  0  0  0
  2  1  1  0
  7  6  1  0
  6  5  1  0
  5  4  1  0
  4  3  2  0
  8  4  1  0
  9  2  1  0
  9 14  2  0
  9 10  1  0
 10 11  2  0
 11 15  1  0
 11 12  1  0
 12 13  2  0
 12 17  1  0
 13 14  1  0
 15 16  1  0
 16 17  1  0
 15  8  1  6
M  END
>  <generation_date>  (343) 
None

>  <inchikey>  (343) 
ARCUOSJFSRBOMH-SNVBAGLBSA-N

>  <ref_mols>  (343) 
cx0692a,cx0969a

>  <tags>  (343) 
['butcher: adenine', 'fragmenstein', 'select (HA) [arg144_pures]', 'arg144_pures', 'select (JA) [arg144_pures]', 'raw', 'butcher: arginine']

>  <ref_pdb>  (343) 
cx0270a

>  <alias>  (343) 
cx0969a-cx0692a

>  <submitter_name>  (343) 
None

>  <HIPPO ID>  (343) 
4664

>  <original ID>  (343) 
cx0969a-cx0692a

>  <method>  (343) 
None

>  <ref_url>  (343) 
None

>  <submitter_email>  (343) 
None

>  <original SMILES>  (343) 
COCC(=O)N[C@@H]1COc2ccc(CO)cc21

$$$$
cx0969a-cx0935a
     RDKit          3D

 18 19  0  0  0  0  0  0  0  0999 V2000
   16.5952   11.1205   15.8046 O   0  0  0  0  0  0  0  0  0  0  0  0
   15.2205   11.3389   15.5235 C   0  0  0  0  0  0  0  0  0  0  0  0
   17.2717   12.5901   11.6485 O   0  0  0  0  0  0  0  0  0  0  0  0
   18.0069   11.7694   11.1058 C   0  0  0  0  0  0  0  0  0  0  0  0
   19.4906   12.1171   10.9607 C   0  0  0  0  0  0  0  0  0  0  0  0
   20.2662   11.1028   10.3500 O   0  0  0  0  0  0  0  0  0  0  0  0
   21.6570   11.4025   10.4656 C   0  0  0  0  0  0  0  0  0  0  0  0
   17.6400   10.5129   10.6474 N   0  0  0  0  0  0  0  0  0  0  0  0
   14.3875    8.8591    9.6974 O   0  0  0  0  0  0  0  0  0  0  0  0
   15.0079   11.3277   14.0385 C   0  0  0  0  0  0  0  0  0  0  0  0
   15.6756   10.3838   13.2511 C   0  0  0  0  0  0  0  0  0  0  0  0
   15.5142   10.4473   11.8823 C   0  0  0  0  0  0  0  0  0  0  0  0
   14.6323   11.3397   11.2883 C   0  0  0  0  0  0  0  0  0  0  0  0
   13.9727   12.2868   12.0315 C   0  0  0  0  0  0  0  0  0  0  0  0
   14.1654   12.2780   13.4188 C   0  0  0  0  0  0  0  0  0  0  0  0
   16.3326    9.8323   10.8100 C   0  0  1  0  0  0  0  0  0  0  0  0
   15.2901    9.9916    9.6755 C   0  0  2  0  0  0  0  0  0  0  0  0
   14.5527   11.2102    9.9216 O   0  0  0  0  0  0  0  0  0  0  0  0
  2  1  1  0
  7  6  1  0
  6  5  1  0
  5  4  1  0
  4  3  2  0
  8  4  1  0
 10  2  1  0
 10 15  2  0
 10 11  1  0
 11 12  2  0
 12 16  1  0
 12 13  1  0
 13 14  2  0
 13 18  1  0
 14 15  1  0
 16 17  1  0
 17 18  1  0
 16  8  1  6
 17  9  1  1
M  END
>  <generation_date>  (344) 
None

>  <inchikey>  (344) 
ZDWGNBSGUHYTRW-RYUDHWBXSA-N

>  <ref_mols>  (344) 
cx0935a,cx0969a

>  <tags>  (344) 
['butcher: adenine', 'fragmenstein', 'select (HA) [arg144_pures]', 'select (DF) [arg144_pures]', 'arg144_pures', 'select (JA) [arg144_pures]', 'raw', 'butcher: arginine']

>  <ref_pdb>  (344) 
cx0270a

>  <alias>  (344) 
cx0969a-cx0935a

>  <submitter_name>  (344) 
None

>  <HIPPO ID>  (344) 
4675

>  <original ID>  (344) 
cx0969a-cx0935a

>  <method>  (344) 
None

>  <ref_url>  (344) 
None

>  <submitter_email>  (344) 
None

>  <original SMILES>  (344) 
COCC(=O)N[C@H]1c2cc(CO)ccc2O[C@@H]1O

$$$$
cx0969b-cx0289a
     RDKit          3D

 22 24  0  0  0  0  0  0  0  0999 V2000
   16.8992   13.9590   14.3118 O   0  0  0  0  0  0  0  0  0  0  0  0
   17.6170   14.6467   13.2950 C   0  0  0  0  0  0  0  0  0  0  0  0
   15.1654   11.4375   10.1630 O   0  0  0  0  0  0  0  0  0  0  0  0
   15.9402   10.2222   10.3020 S   0  0  0  0  0  6  0  0  0  0  0  0
   15.7547    9.1258    9.3748 O   0  0  0  0  0  0  0  0  0  0  0  0
   14.7130    7.9485   15.6975 N   0  0  0  0  0  0  0  0  0  0  0  0
   17.5883   10.5330   10.3822 N   0  0  0  0  0  0  0  0  0  0  0  0
   18.3459   13.6384   12.4491 C   0  0  0  0  0  0  0  0  0  0  0  0
   19.7336   13.7297   12.2830 C   0  0  0  0  0  0  0  0  0  0  0  0
   20.3613   12.7767   11.5078 C   0  0  0  0  0  0  0  0  0  0  0  0
   19.6349   11.7588   10.8985 C   0  0  0  0  0  0  0  0  0  0  0  0
   18.2479   11.6413   11.0120 C   0  0  0  0  0  0  0  0  0  0  0  0
   17.6201   12.6008   11.8060 C   0  0  0  0  0  0  0  0  0  0  0  0
   21.7949   12.6605   11.1560 C   0  0  0  0  0  0  0  0  0  0  0  0
   21.7880   11.2436   10.5940 C   0  0  0  0  0  0  0  0  0  0  0  0
   20.4399   10.9067   10.1809 O   0  0  0  0  0  0  0  0  0  0  0  0
   15.6216    8.1676   12.1110 C   0  0  0  0  0  0  0  0  0  0  0  0
   15.5775    9.5498   11.9142 C   0  0  0  0  0  0  0  0  0  0  0  0
   15.1611   10.3862   12.9502 C   0  0  0  0  0  0  0  0  0  0  0  0
   14.9125    9.8513   14.2151 C   0  0  0  0  0  0  0  0  0  0  0  0
   15.0667    8.4843   14.4546 C   0  0  0  0  0  0  0  0  0  0  0  0
   15.3515    7.6407   13.3768 C   0  0  0  0  0  0  0  0  0  0  0  0
  2  1  1  0
  5  4  2  0
  4  3  2  0
  7  4  1  0
  8  2  1  0
  8 13  2  0
  8  9  1  0
  9 10  2  0
 10 14  1  0
 10 11  1  0
 11 12  2  0
 11 16  1  0
 12 13  1  0
 14 15  1  0
 15 16  1  0
 17 22  2  0
 17 18  1  0
 18 19  2  0
 18  4  1  0
 19 20  1  0
 20 21  2  0
 21  6  1  0
 21 22  1  0
  7 12  1  0
M  END
>  <generation_date>  (345) 
None

>  <inchikey>  (345) 
NCILFCAMRSYQKX-UHFFFAOYSA-N

>  <ref_mols>  (345) 
cx0289a,cx0969b

>  <tags>  (345) 
['butcher: adenine', 'fragmenstein', 'select (DF) [arg144_pures]', 'arg144_pures', 'select (JA) [arg144_pures]', 'raw', 'butcher: arginine']

>  <ref_pdb>  (345) 
cx0270a

>  <alias>  (345) 
cx0969b-cx0289a

>  <submitter_name>  (345) 
None

>  <HIPPO ID>  (345) 
4724

>  <original ID>  (345) 
cx0969b-cx0289a

>  <method>  (345) 
None

>  <ref_url>  (345) 
None

>  <submitter_email>  (345) 
None

>  <original SMILES>  (345) 
Nc1ccc(S(=O)(=O)Nc2cc(CO)cc3c2OCC3)cc1

$$$$
cx0969d-cx0289a
     RDKit          3D

 22 24  0  0  0  0  0  0  0  0999 V2000
   16.5590   14.2799   13.6258 O   0  0  0  0  0  0  0  0  0  0  0  0
   17.8482   14.6871   13.2051 C   0  0  0  0  0  0  0  0  0  0  0  0
   15.2575   11.4291   10.1511 O   0  0  0  0  0  0  0  0  0  0  0  0
   16.0179   10.2069   10.3002 S   0  0  0  0  0  6  0  0  0  0  0  0
   15.8113    9.1034    9.3854 O   0  0  0  0  0  0  0  0  0  0  0  0
   14.6839    8.0007   15.6995 N   0  0  0  0  0  0  0  0  0  0  0  0
   17.6768   10.4866   10.3748 N   0  0  0  0  0  0  0  0  0  0  0  0
   18.5090   13.6234   12.3674 C   0  0  0  0  0  0  0  0  0  0  0  0
   19.8847   13.7312   12.1265 C   0  0  0  0  0  0  0  0  0  0  0  0
   20.4850   12.7774   11.3354 C   0  0  0  0  0  0  0  0  0  0  0  0
   19.7459   11.7299   10.7933 C   0  0  0  0  0  0  0  0  0  0  0  0
   18.3636   11.6037   10.9637 C   0  0  0  0  0  0  0  0  0  0  0  0
   17.7646   12.5701   11.7706 C   0  0  0  0  0  0  0  0  0  0  0  0
   21.8920   12.7045   10.8793 C   0  0  0  0  0  0  0  0  0  0  0  0
   21.8941   11.2693   10.3727 C   0  0  0  0  0  0  0  0  0  0  0  0
   20.5331   10.8768   10.0565 O   0  0  0  0  0  0  0  0  0  0  0  0
   15.6422    8.1746   12.1240 C   0  0  0  0  0  0  0  0  0  0  0  0
   15.6345    9.5562   11.9173 C   0  0  0  0  0  0  0  0  0  0  0  0
   15.2249   10.4098   12.9424 C   0  0  0  0  0  0  0  0  0  0  0  0
   14.9459    9.8890   14.2072 C   0  0  0  0  0  0  0  0  0  0  0  0
   15.0661    8.5204   14.4583 C   0  0  0  0  0  0  0  0  0  0  0  0
   15.3455    7.6630   13.3901 C   0  0  0  0  0  0  0  0  0  0  0  0
  2  1  1  0
  5  4  2  0
  4  3  2  0
  7  4  1  0
  8  2  1  0
  8 13  2  0
  8  9  1  0
  9 10  2  0
 10 14  1  0
 10 11  1  0
 11 12  2  0
 11 16  1  0
 12 13  1  0
 14 15  1  0
 15 16  1  0
 17 22  2  0
 17 18  1  0
 18 19  2  0
 18  4  1  0
 19 20  1  0
 20 21  2  0
 21  6  1  0
 21 22  1  0
  7 12  1  0
M  END
>  <generation_date>  (346) 
None

>  <inchikey>  (346) 
NCILFCAMRSYQKX-UHFFFAOYSA-N

>  <ref_mols>  (346) 
cx0289a,cx0969d

>  <tags>  (346) 
['butcher: adenine', 'fragmenstein', 'select (HA) [arg144_pures]', 'select (DF) [arg144_pures]', 'arg144_pures', 'select (JA) [arg144_pures]', 'raw', 'butcher: arginine']

>  <ref_pdb>  (346) 
cx0270a

>  <alias>  (346) 
cx0969d-cx0289a

>  <submitter_name>  (346) 
None

>  <HIPPO ID>  (346) 
4790

>  <original ID>  (346) 
cx0969d-cx0289a

>  <method>  (346) 
None

>  <ref_url>  (346) 
None

>  <submitter_email>  (346) 
None

>  <original SMILES>  (346) 
Nc1ccc(S(=O)(=O)Nc2cc(CO)cc3c2OCC3)cc1

$$$$
cx0969d-cx1260a
     RDKit          3D

 13 15  0  0  0  0  0  0  0  0999 V2000
   18.2919   13.4294   12.1868 C   0  0  0  0  0  0  0  0  0  0  0  0
   19.5642   13.8769   12.0701 C   0  0  0  0  0  0  0  0  0  0  0  0
   20.5533   13.0741   11.4004 C   0  0  0  0  0  0  0  0  0  0  0  0
   20.2528   11.9060   10.8465 C   0  0  0  0  0  0  0  0  0  0  0  0
   18.8984   11.3054   10.8477 C   0  0  0  0  0  0  0  0  0  0  0  0
   17.8540   12.0816   11.6550 C   0  0  0  0  0  0  0  0  0  0  0  0
   22.0019   13.3219   11.2210 C   0  0  0  0  0  0  0  0  0  0  0  0
   22.4002   12.1471   10.3196 C   0  0  0  0  0  0  0  0  0  0  0  0
   21.3019   11.2075   10.2785 O   0  0  0  0  0  0  0  0  0  0  0  0
   19.9687   15.2095   12.6461 C   0  0  0  0  0  0  0  0  0  0  0  0
   17.3064   14.1834   12.7992 N   0  0  0  0  0  0  0  0  0  0  0  0
   17.6336   15.3369   13.6149 C   0  0  0  0  0  0  0  0  0  0  0  0
   18.7707   16.1129   12.9630 C   0  0  0  0  0  0  0  0  0  0  0  0
  1  6  1  0
  1  2  2  0
  2  3  1  0
  3  7  1  0
  3  4  2  0
  4  5  1  0
  4  9  1  0
  5  6  1  0
  7  8  1  0
  8  9  1  0
 10 13  1  0
 11 12  1  0
 12 13  1  0
  2 10  1  0
  1 11  1  0
M  END
>  <generation_date>  (347) 
None

>  <inchikey>  (347) 
BPORPDJTOBNPCL-UHFFFAOYSA-N

>  <ref_mols>  (347) 
cx1260a,cx0969d

>  <tags>  (347) 
['butcher: adenine', 'fragmenstein', 'select (DF) [arg144_pures]', 'arg144_pures', 'select (JA) [arg144_pures]', 'raw', 'butcher: arginine']

>  <ref_pdb>  (347) 
cx0270a

>  <alias>  (347) 
cx0969d-cx1260a

>  <submitter_name>  (347) 
None

>  <HIPPO ID>  (347) 
4809

>  <original ID>  (347) 
cx0969d-cx1260a

>  <method>  (347) 
None

>  <ref_url>  (347) 
None

>  <submitter_email>  (347) 
None

>  <original SMILES>  (347) 
C1CNC2=C(C1)C1=C(CC2)OCC1

$$$$
cx0969d-cx0935a
     RDKit          3D

 20 22  0  0  0  0  0  0  0  0999 V2000
   16.7168   14.8624   13.4634 O   0  0  0  0  0  0  0  0  0  0  0  0
   18.1324   14.9387   13.3413 C   0  0  0  0  0  0  0  0  0  0  0  0
   16.5653   12.7709   12.1206 O   0  0  0  0  0  0  0  0  0  0  0  0
   18.6971   13.8355   12.4822 C   0  0  0  0  0  0  0  0  0  0  0  0
   20.0758   13.8927   12.2117 C   0  0  0  0  0  0  0  0  0  0  0  0
   20.6367   12.9250   11.4074 C   0  0  0  0  0  0  0  0  0  0  0  0
   19.8585   11.9043   10.8789 C   0  0  0  0  0  0  0  0  0  0  0  0
   18.4785   11.8025   11.0861 C   0  0  0  0  0  0  0  0  0  0  0  0
   17.9215   12.7871   11.9204 C   0  0  0  0  0  0  0  0  0  0  0  0
   22.0285   12.8094   10.9145 C   0  0  0  0  0  0  0  0  0  0  0  0
   21.9762   11.3744   10.4052 C   0  0  0  0  0  0  0  0  0  0  0  0
   20.5987   11.0270   10.1185 O   0  0  0  0  0  0  0  0  0  0  0  0
   17.7594   10.7571   10.4775 N   0  0  0  0  0  0  0  0  0  0  0  0
   13.6635    7.1594   11.4706 O   0  0  0  0  0  0  0  0  0  0  0  0
   16.5928   10.0254   10.7627 C   0  0  0  0  0  0  0  0  0  0  0  0
   16.0655    9.8729   12.0463 C   0  0  0  0  0  0  0  0  0  0  0  0
   15.0788    8.9165   12.3036 C   0  0  0  0  0  0  0  0  0  0  0  0
   14.5638    8.1617   11.2554 C   0  0  0  0  0  0  0  0  0  0  0  0
   14.9439    8.4180    9.9535 C   0  0  0  0  0  0  0  0  0  0  0  0
   15.9603    9.3405    9.7139 C   0  0  0  0  0  0  0  0  0  0  0  0
  2  1  1  0
  4  2  1  0
  4  9  2  0
  4  5  1  0
  5  6  2  0
  6 10  1  0
  6  7  1  0
  7  8  2  0
  7 12  1  0
  8  9  1  0
 10 11  1  0
 11 12  1  0
  9  3  1  0
 15 13  1  0
 15 20  1  0
 15 16  2  0
 16 17  1  0
 17 18  2  0
 18 19  1  0
 18 14  1  0
 19 20  2  0
  8 13  1  0
M  END
>  <generation_date>  (348) 
None

>  <inchikey>  (348) 
XIZQDAMBIPVMJZ-UHFFFAOYSA-N

>  <ref_mols>  (348) 
cx0935a,cx0969d

>  <tags>  (348) 
['butcher: adenine', 'fragmenstein', 'select (HA) [arg144_pures]', 'arg144_pures', 'raw', 'butcher: arginine']

>  <ref_pdb>  (348) 
cx0270a

>  <alias>  (348) 
cx0969d-cx0935a

>  <submitter_name>  (348) 
None

>  <HIPPO ID>  (348) 
4813

>  <original ID>  (348) 
cx0969d-cx0935a

>  <method>  (348) 
None

>  <ref_url>  (348) 
None

>  <submitter_email>  (348) 
None

>  <original SMILES>  (348) 
OCc1cc2c(c(Nc3ccc(O)cc3)c1O)OCC2

$$$$
cx0969d-cx1440f
     RDKit          3D

 12 13  0  0  0  0  0  0  0  0999 V2000
   17.0624   15.0616   13.2606 O   0  0  0  0  0  0  0  0  0  0  0  0
   16.9287   13.6799   12.9646 C   0  0  0  0  0  0  0  0  0  0  0  0
   22.0568   15.0877   11.8751 N   0  0  0  0  0  0  0  0  0  0  0  0
   18.1477   13.1526   12.2590 C   0  0  0  0  0  0  0  0  0  0  0  0
   19.4107   13.7203   12.4739 C   0  0  0  0  0  0  0  0  0  0  0  0
   20.5059   13.2047   11.7992 C   0  0  0  0  0  0  0  0  0  0  0  0
   20.3698   12.1256   10.9469 C   0  0  0  0  0  0  0  0  0  0  0  0
   19.1526   11.5125   10.7472 C   0  0  0  0  0  0  0  0  0  0  0  0
   18.0344   12.0346   11.4055 C   0  0  0  0  0  0  0  0  0  0  0  0
   21.9324   13.6217   11.8496 C   0  0  1  0  0  0  0  0  0  0  0  0
   22.4203   12.8863   10.5778 C   0  0  0  0  0  0  0  0  0  0  0  0
   21.5367   11.7553   10.3372 O   0  0  0  0  0  0  0  0  0  0  0  0
  2  1  1  0
  4  2  1  0
  4  9  2  0
  4  5  1  0
  5  6  2  0
  6 10  1  0
  6  7  1  0
  7  8  2  0
  7 12  1  0
  8  9  1  0
 10 11  1  0
 11 12  1  0
 10  3  1  6
M  END
>  <generation_date>  (349) 
None

>  <inchikey>  (349) 
LNAVTMNVGRFOOR-MRVPVSSYSA-N

>  <ref_mols>  (349) 
cx1440f,cx0969d

>  <tags>  (349) 
['butcher: adenine', 'fragmenstein', 'select (HA) [arg144_pures]', 'select (DF) [arg144_pures]', 'arg144_pures', 'select (JA) [arg144_pures]', 'raw', 'butcher: arginine']

>  <ref_pdb>  (349) 
cx0270a

>  <alias>  (349) 
cx0969d-cx1440f

>  <submitter_name>  (349) 
None

>  <HIPPO ID>  (349) 
4853

>  <original ID>  (349) 
cx0969d-cx1440f

>  <method>  (349) 
None

>  <ref_url>  (349) 
None

>  <submitter_email>  (349) 
None

>  <original SMILES>  (349) 
N[C@@H]1COc2ccc(CO)cc21

$$$$
cx0969f-cx0692a
     RDKit          3D

 21 23  0  0  0  0  0  0  0  0999 V2000
   17.6015   14.1911   14.1537 O   0  0  0  0  0  0  0  0  0  0  0  0
   18.0543   14.6804   12.9070 C   0  0  0  0  0  0  0  0  0  0  0  0
   19.2328   10.7091   10.1129 O   0  0  0  0  0  0  0  0  0  0  0  0
   19.0249   13.7402   12.2227 C   0  0  0  0  0  0  0  0  0  0  0  0
   20.3986   14.0904   12.2170 C   0  0  0  0  0  0  0  0  0  0  0  0
   21.3029   13.3006   11.5254 C   0  0  0  0  0  0  0  0  0  0  0  0
   20.8721   12.1899   10.8445 C   0  0  0  0  0  0  0  0  0  0  0  0
   19.5575   11.8087   10.8386 C   0  0  0  0  0  0  0  0  0  0  0  0
   18.6114   12.5515   11.5545 C   0  0  0  0  0  0  0  0  0  0  0  0
   22.7770   13.3628   11.4087 C   0  0  0  0  0  0  0  0  0  0  0  0
   22.9766   12.3983   10.2335 C   0  0  0  0  0  0  0  0  0  0  0  0
   21.8538   11.4895   10.1966 O   0  0  0  0  0  0  0  0  0  0  0  0
   16.5932   12.2899   12.7187 O   0  0  0  0  0  0  0  0  0  0  0  0
   17.2407   11.9795   11.7233 C   0  0  0  0  0  0  0  0  0  0  0  0
   16.8074   11.1099   10.7452 N   0  0  0  0  0  0  0  0  0  0  0  0
   15.8882   10.0629   10.8993 C   0  0  0  0  0  0  0  0  0  0  0  0
   15.5033    9.5756   12.1469 C   0  0  0  0  0  0  0  0  0  0  0  0
   14.7694    8.3935   12.2321 C   0  0  0  0  0  0  0  0  0  0  0  0
   14.3433    7.7478   11.0731 C   0  0  0  0  0  0  0  0  0  0  0  0
   14.6462    8.2886    9.8298 C   0  0  0  0  0  0  0  0  0  0  0  0
   15.4568    9.4156    9.7404 C   0  0  0  0  0  0  0  0  0  0  0  0
  2  1  1  0
  4  2  1  0
  4  9  2  0
  4  5  1  0
  5  6  2  0
  6 10  1  0
  6  7  1  0
  7  8  2  0
  7 12  1  0
  8  9  1  0
 10 11  1  0
 11 12  1  0
  8  3  1  0
 14 13  2  0
 15 14  1  0
 16 15  1  0
 16 21  1  0
 16 17  2  0
 17 18  1  0
 18 19  2  0
 19 20  1  0
 20 21  2  0
  9 14  1  0
M  END
>  <generation_date>  (350) 
None

>  <inchikey>  (350) 
HZMWNEMTDOMFDH-UHFFFAOYSA-N

>  <ref_mols>  (350) 
cx0692a,cx0969f

>  <tags>  (350) 
['butcher: adenine', 'fragmenstein', 'select (DF) [arg144_pures]', 'arg144_pures', 'raw', 'butcher: arginine']

>  <ref_pdb>  (350) 
cx0270a

>  <alias>  (350) 
cx0969f-cx0692a

>  <submitter_name>  (350) 
None

>  <HIPPO ID>  (350) 
4873

>  <original ID>  (350) 
cx0969f-cx0692a

>  <method>  (350) 
None

>  <ref_url>  (350) 
None

>  <submitter_email>  (350) 
None

>  <original SMILES>  (350) 
O=C(Nc1ccccc1)c1c(CO)cc2c(c1O)OCC2

$$$$
cx0969f-cx0935a
     RDKit          3D

 20 22  0  0  0  0  0  0  0  0999 V2000
   17.1814   14.4725   14.2274 O   0  0  0  0  0  0  0  0  0  0  0  0
   18.2082   14.9779   13.3767 C   0  0  0  0  0  0  0  0  0  0  0  0
   16.6102   12.8766   12.2166 O   0  0  0  0  0  0  0  0  0  0  0  0
   18.7759   13.8651   12.5362 C   0  0  0  0  0  0  0  0  0  0  0  0
   20.1478   13.8964   12.2401 C   0  0  0  0  0  0  0  0  0  0  0  0
   20.6696   12.9119   11.4300 C   0  0  0  0  0  0  0  0  0  0  0  0
   19.8530   11.9213   10.9009 C   0  0  0  0  0  0  0  0  0  0  0  0
   18.4723   11.8600   11.1158 C   0  0  0  0  0  0  0  0  0  0  0  0
   17.9592   12.8470   11.9714 C   0  0  0  0  0  0  0  0  0  0  0  0
   22.0543   12.7435   10.9331 C   0  0  0  0  0  0  0  0  0  0  0  0
   21.9459   11.3128   10.4209 C   0  0  0  0  0  0  0  0  0  0  0  0
   20.5569   11.0203   10.1334 O   0  0  0  0  0  0  0  0  0  0  0  0
   17.7266   10.8411   10.4969 N   0  0  0  0  0  0  0  0  0  0  0  0
   13.6951    7.1771   11.5155 O   0  0  0  0  0  0  0  0  0  0  0  0
   16.5804   10.0850   10.7940 C   0  0  0  0  0  0  0  0  0  0  0  0
   16.0561    9.9333   12.0775 C   0  0  0  0  0  0  0  0  0  0  0  0
   15.0844    8.9615   12.3387 C   0  0  0  0  0  0  0  0  0  0  0  0
   14.5834    8.1891   11.2951 C   0  0  0  0  0  0  0  0  0  0  0  0
   14.9644    8.4377    9.9922 C   0  0  0  0  0  0  0  0  0  0  0  0
   15.9632    9.3776    9.7488 C   0  0  0  0  0  0  0  0  0  0  0  0
  2  1  1  0
  4  2  1  0
  4  9  2  0
  4  5  1  0
  5  6  2  0
  6 10  1  0
  6  7  1  0
  7  8  2  0
  7 12  1  0
  8  9  1  0
 10 11  1  0
 11 12  1  0
  9  3  1  0
 15 13  1  0
 15 20  1  0
 15 16  2  0
 16 17  1  0
 17 18  2  0
 18 19  1  0
 18 14  1  0
 19 20  2  0
  8 13  1  0
M  END
>  <generation_date>  (351) 
None

>  <inchikey>  (351) 
XIZQDAMBIPVMJZ-UHFFFAOYSA-N

>  <ref_mols>  (351) 
cx0935a,cx0969f

>  <tags>  (351) 
['butcher: adenine', 'fragmenstein', 'select (HA) [arg144_pures]', 'arg144_pures', 'raw', 'butcher: arginine']

>  <ref_pdb>  (351) 
cx0270a

>  <alias>  (351) 
cx0969f-cx0935a

>  <submitter_name>  (351) 
None

>  <HIPPO ID>  (351) 
4885

>  <original ID>  (351) 
cx0969f-cx0935a

>  <method>  (351) 
None

>  <ref_url>  (351) 
None

>  <submitter_email>  (351) 
None

>  <original SMILES>  (351) 
OCc1cc2c(c(Nc3ccc(O)cc3)c1O)OCC2

$$$$
cx1075a-cx0692a
     RDKit          3D

 14 14  0  0  0  0  0  0  0  0999 V2000
   14.9088    7.8545   13.3652 Br  0  0  0  0  0  0  0  0  0  0  0  0
   13.6859   12.8070   12.0495 N   0  0  0  0  0  0  0  0  0  0  0  0
   17.4867   12.9555   11.9324 O   0  0  0  0  0  0  0  0  0  0  0  0
   18.1012   12.1571   11.2235 C   0  0  0  0  0  0  0  0  0  0  0  0
   19.6015   12.3224   11.0541 C   0  0  0  0  0  0  0  0  0  0  0  0
   20.2146   11.1223   10.6125 O   0  0  0  0  0  0  0  0  0  0  0  0
   21.6329   11.2702   10.6002 C   0  0  0  0  0  0  0  0  0  0  0  0
   17.5643   11.0573   10.5593 N   0  0  0  0  0  0  0  0  0  0  0  0
   15.0716    9.4351   12.3399 C   0  0  0  0  0  0  0  0  0  0  0  0
   14.3651   10.5788   12.7030 C   0  0  0  0  0  0  0  0  0  0  0  0
   14.4796   11.6907   11.8995 C   0  0  0  0  0  0  0  0  0  0  0  0
   15.3589   11.7405   10.9108 N   0  0  0  0  0  0  0  0  0  0  0  0
   16.2236   10.7228   10.7890 C   0  0  0  0  0  0  0  0  0  0  0  0
   15.9762    9.4709   11.2955 C   0  0  0  0  0  0  0  0  0  0  0  0
  7  6  1  0
  6  5  1  0
  5  4  1  0
  4  3  2  0
  8  4  1  0
  9 14  2  0
  9  1  1  0
  9 10  1  0
 10 11  2  0
 11  2  1  0
 11 12  1  0
 12 13  2  0
 13 14  1  0
  8 13  1  0
M  END
>  <generation_date>  (352) 
None

>  <inchikey>  (352) 
GLWBHHUWZUOZOL-UHFFFAOYSA-N

>  <ref_mols>  (352) 
cx0692a,cx1075a

>  <tags>  (352) 
['butcher: adenine', 'fragmenstein', 'select (HA) [arg144_pures]', 'arg144_pures', 'raw', 'butcher: arginine']

>  <ref_pdb>  (352) 
cx0270a

>  <alias>  (352) 
cx1075a-cx0692a

>  <submitter_name>  (352) 
None

>  <HIPPO ID>  (352) 
4941

>  <original ID>  (352) 
cx1075a-cx0692a

>  <method>  (352) 
None

>  <ref_url>  (352) 
None

>  <submitter_email>  (352) 
None

>  <original SMILES>  (352) 
COCC(=O)Nc1cc(Br)cc(N)n1

$$$$
cx1076a-cx0692a
     RDKit          3D

 19 20  0  0  0  0  0  0  0  0999 V2000
   15.8924    9.0655   14.5020 Br  0  0  0  0  0  0  0  0  0  0  0  0
   13.8052   11.4544   10.2381 O   0  0  0  0  0  0  0  0  0  0  0  0
   17.2572   13.3162   11.8911 O   0  0  0  0  0  0  0  0  0  0  0  0
   18.0482   12.4032   11.6887 C   0  0  0  0  0  0  0  0  0  0  0  0
   19.5428   12.6226   11.4451 C   0  0  0  0  0  0  0  0  0  0  0  0
   20.0870   11.4494   10.8282 O   0  0  0  0  0  0  0  0  0  0  0  0
   21.5003   11.5519   10.6770 C   0  0  0  0  0  0  0  0  0  0  0  0
   17.6891   11.0626   11.6672 N   0  0  0  0  0  0  0  0  0  0  0  0
   15.0577   10.4871   13.4566 C   0  0  1  0  0  0  0  0  0  0  0  0
   15.4247   11.8328   14.0379 C   0  0  0  0  0  0  0  0  0  0  0  0
   14.5185   12.8892   13.4426 C   0  0  0  0  0  0  0  0  0  0  0  0
   14.1655   12.6461   12.0673 N   0  0  0  0  0  0  0  0  0  0  0  0
   14.2637   11.4778   11.3775 C   0  0  0  0  0  0  0  0  0  0  0  0
   15.1707   10.3579   11.9205 C   0  0  1  0  0  0  0  0  0  0  0  0
   16.4366   10.7051   11.0558 C   0  0  2  0  0  0  0  0  0  0  0  0
   14.7487    8.8905   11.5497 C   0  0  0  0  0  0  0  0  0  0  0  0
   14.4837    8.5864   10.0786 C   0  0  0  0  0  0  0  0  0  0  0  0
   15.5016    9.2760    9.2058 C   0  0  0  0  0  0  0  0  0  0  0  0
   16.7223    9.6274   10.0160 C   0  0  0  0  0  0  0  0  0  0  0  0
  7  6  1  0
  6  5  1  0
  5  4  1  0
  4  3  2  0
  8  4  1  0
 14  9  1  0
  9  1  1  1
  9 10  1  0
 10 11  1  0
 11 12  1  0
 12 13  1  0
 13  2  2  0
 13 14  1  0
 15  8  1  1
 15 19  1  0
 16 17  1  0
 17 18  1  0
 18 19  1  0
 14 15  1  0
 14 16  1  6
M  END
>  <generation_date>  (353) 
None

>  <inchikey>  (353) 
FNHGBIFBXKFXQD-OUJBWJOFSA-N

>  <ref_mols>  (353) 
cx0692a,cx1076a

>  <tags>  (353) 
['butcher: adenine', 'fragmenstein', 'select (HA) [arg144_pures]', 'arg144_pures', 'raw', 'butcher: arginine']

>  <ref_pdb>  (353) 
cx0270a

>  <alias>  (353) 
cx1076a-cx0692a

>  <submitter_name>  (353) 
None

>  <HIPPO ID>  (353) 
4995

>  <original ID>  (353) 
cx1076a-cx0692a

>  <method>  (353) 
None

>  <ref_url>  (353) 
None

>  <submitter_email>  (353) 
None

>  <original SMILES>  (353) 
COCC(=O)N[C@H]1CCCC[C@]12C(=O)NCC[C@@H]2Br

$$$$
cx1076a-cx0935a
     RDKit          3D

 19 20  0  0  0  0  0  0  0  0999 V2000
   15.9026    8.8348   14.1239 Br  0  0  0  0  0  0  0  0  0  0  0  0
   13.8608   11.5445   10.0481 O   0  0  0  0  0  0  0  0  0  0  0  0
   17.3424   13.0779   11.9109 O   0  0  0  0  0  0  0  0  0  0  0  0
   18.1048   12.1783   11.5704 C   0  0  0  0  0  0  0  0  0  0  0  0
   19.5980   12.4225   11.3419 C   0  0  0  0  0  0  0  0  0  0  0  0
   20.1834   11.3092   10.6706 O   0  0  0  0  0  0  0  0  0  0  0  0
   21.5978   11.4640   10.5692 C   0  0  0  0  0  0  0  0  0  0  0  0
   17.6967   10.8618   11.3523 N   0  0  0  0  0  0  0  0  0  0  0  0
   14.0953    7.9447   11.8467 O   0  0  0  0  0  0  0  0  0  0  0  0
   15.0077   10.3076   13.2108 C   0  0  1  0  0  0  0  0  0  0  0  0
   15.3871   11.6077   13.8917 C   0  0  0  0  0  0  0  0  0  0  0  0
   14.5064   12.7270   13.3741 C   0  0  0  0  0  0  0  0  0  0  0  0
   14.1775   12.6070   11.9775 N   0  0  0  0  0  0  0  0  0  0  0  0
   14.2678   11.4918   11.2072 C   0  0  0  0  0  0  0  0  0  0  0  0
   15.1153   10.3085   11.6813 C   0  0  1  0  0  0  0  0  0  0  0  0
   16.3753   10.6632   10.8093 C   0  0  2  0  0  0  0  0  0  0  0  0
   14.6074    8.9730   11.0099 C   0  0  1  0  0  0  0  0  0  0  0  0
   15.7743    8.4151   10.2583 C   0  0  0  0  0  0  0  0  0  0  0  0
   16.3605    9.6530    9.6663 C   0  0  0  0  0  0  0  0  0  0  0  0
  7  6  1  0
  6  5  1  0
  5  4  1  0
  4  3  2  0
  8  4  1  0
 15 10  1  0
 10  1  1  1
 10 11  1  0
 11 12  1  0
 12 13  1  0
 13 14  1  0
 14  2  2  0
 15 14  1  6
 16  8  1  1
 16 19  1  0
 17 18  1  0
 17  9  1  1
 18 19  1  0
 15 17  1  0
 15 16  1  0
M  END
>  <generation_date>  (354) 
None

>  <inchikey>  (354) 
YIHYBZYHLNJFRX-APOZVJGGSA-N

>  <ref_mols>  (354) 
cx0935a,cx1076a

>  <tags>  (354) 
['butcher: adenine', 'fragmenstein', 'select (DF) [arg144_pures]', 'arg144_pures', 'raw', 'butcher: arginine']

>  <ref_pdb>  (354) 
cx0270a

>  <alias>  (354) 
cx1076a-cx0935a

>  <submitter_name>  (354) 
None

>  <HIPPO ID>  (354) 
5004

>  <original ID>  (354) 
cx1076a-cx0935a

>  <method>  (354) 
None

>  <ref_url>  (354) 
None

>  <submitter_email>  (354) 
None

>  <original SMILES>  (354) 
COCC(=O)N[C@H]1CC[C@@H](O)[C@]12C(=O)NCC[C@@H]2Br

$$$$
