ver_1.2
     RDKit          3D

 14 15  0  0  0  0  0  0  0  0999 V2000
    3.0740   -1.3190    0.0550 C   0  0  0  0  0  0  0  0  0  0  0  0
    2.2376   -0.1375    0.0524 N   0  0  0  0  0  0  0  0  0  0  0  0
    2.5521    1.1523    0.0795 C   0  0  0  0  0  0  0  0  0  0  0  0
    1.4197    1.8886    0.0630 N   0  0  0  0  0  0  0  0  0  0  0  0
    0.3605    1.0602    0.0247 C   0  0  0  0  0  0  0  0  0  0  0  0
    0.8814   -0.2170    0.0182 C   0  0  0  0  0  0  0  0  0  0  0  0
   -0.0180   -1.2717   -0.0196 C   0  0  0  0  0  0  0  0  0  0  0  0
    0.4436   -2.4553   -0.0262 O   0  0  0  0  0  0  0  0  0  0  0  0
   -1.3622   -1.0526   -0.0490 N   0  0  0  0  0  0  0  0  0  0  0  0
   -1.8115    0.2139   -0.0409 C   0  0  0  0  0  0  0  0  0  0  0  0
   -3.0501    0.4186   -0.0680 O   0  0  0  0  0  0  0  0  0  0  0  0
   -0.9813    1.2698   -0.0048 N   0  0  0  0  0  0  0  0  0  0  0  0
   -1.4764    2.6322    0.0037 C   0  0  0  0  0  0  0  0  0  0  0  0
   -2.2695   -2.1826   -0.0882 C   0  0  0  0  0  0  0  0  0  0  0  0
  1  2  1  0
  2  3  1  0
  3  4  2  0
  4  5  1  0
  5  6  2  0
  6  7  1  0
  7  8  2  0
  7  9  1  0
  9 10  1  0
 10 11  2  0
 10 12  1  0
 12 13  1  0
  9 14  1  0
  6  2  1  0
 12  5  1  0
M  END
>  <ref_url>  (1) 
https://github.com/matteoferla/EV-A71-2A-elaborations

>  <submitter_name>  (1) 
Matteo Ferla

>  <submitter_email>  (1) 
matteo.ferla@stats.ox.ac.uk

>  <submitter_institution>  (1) 
University of Oxford

>  <generation_date>  (1) 
2023-11-14

>  <method>  (1) 
A71-ROCS-cov

>  <rationale>  (1) 
rationale

>  <∆∆G>  (1) 
∆∆G

>  <comRMSD>  (1) 
comRMSD

>  <ROCS_TanimotoCombo>  (1) 
ROCS_TanimotoCombo

>  <ROCS_ShapeTanimoto>  (1) 
ROCS_ShapeTanimoto

>  <ROCS_ColorTanimoto>  (1) 
ROCS_ColorTanimoto

>  <distance>  (1) 
distance

$$$$
Z4425210748
     RDKit          3D

 46 48  0  0  0  0  0  0  0  0999 V2000
   12.7230   13.5920   25.3000 O   0  0  0  0  0  0  0  0  0  0  0  0
   13.2350   13.0400   24.3540 C   0  0  0  0  0  0  0  0  0  0  0  0
   14.0120   11.7990   24.4410 C   0  0  0  0  0  0  0  0  0  0  0  0
   15.0300   11.7360   25.8830 Cl  0  0  0  0  0  0  0  0  0  0  0  0
   13.1230   13.5700   23.0670 N   0  0  0  0  0  0  0  0  0  0  0  0
   12.4680   14.6570   22.6770 C   0  0  0  0  0  0  0  0  0  0  0  0
   11.3140   14.5810   21.7400 C   0  0  0  0  0  0  0  0  0  0  0  0
   10.5680   13.4160   22.1150 N   0  0  0  0  0  0  0  0  0  0  0  0
   10.4170   13.3230   23.5710 C   0  0  0  0  0  0  0  0  0  0  0  0
   10.7120   14.1370   24.4430 O   0  0  0  0  0  0  0  0  0  0  0  0
    9.7780   11.9870   23.8490 C   0  0  0  0  0  0  0  0  0  0  0  0
   10.4930   10.8840   23.1080 C   0  0  0  0  0  0  0  0  0  0  0  0
   10.0270    9.5990   23.2350 C   0  0  0  0  0  0  0  0  0  0  0  0
    8.8090    9.3790   24.1390 C   0  0  0  0  0  0  0  0  0  0  0  0
    8.4560    8.0870   24.1800 F   0  0  0  0  0  0  0  0  0  0  0  0
    8.2100   10.4720   24.8050 C   0  0  0  0  0  0  0  0  0  0  0  0
    7.0140   10.1690   25.6930 C   0  0  0  0  0  0  0  0  0  0  0  0
    6.2690   11.2630   26.4810 C   0  0  0  0  0  0  0  0  0  0  0  0
    6.7600   12.5500   26.3270 C   0  0  0  0  0  0  0  0  0  0  0  0
    7.9600   12.8870   25.4400 C   0  0  0  0  0  0  0  0  0  0  0  0
    8.6730   11.7790   24.6780 C   0  0  0  0  0  0  0  0  0  0  0  0
   10.3490   15.7860   21.8160 C   0  0  0  0  0  0  0  0  0  0  0  0
   10.7800   16.8560   21.0620 C   0  0  0  0  0  0  0  0  0  0  0  0
   11.1410   16.5570   19.7180 O   0  0  0  0  0  0  0  0  0  0  0  0
   12.1780   15.5960   19.6250 C   0  0  0  0  0  0  0  0  0  0  0  0
   11.7250   14.3390   20.2660 C   0  0  0  0  0  0  0  0  0  0  0  0
   13.3640   10.9220   24.4000 H   0  0  0  0  0  0  0  0  0  0  0  0
   14.6810   11.7700   23.5890 H   0  0  0  0  0  0  0  0  0  0  0  0
   13.9120   13.3860   22.4790 H   0  0  0  0  0  0  0  0  0  0  0  0
   13.2590   15.3340   22.3700 H   0  0  0  0  0  0  0  0  0  0  0  0
   12.0740   15.1090   23.5880 H   0  0  0  0  0  0  0  0  0  0  0  0
   10.8090   12.5640   21.6050 H   0  0  0  0  0  0  0  0  0  0  0  0
   11.3490   11.1090   22.4910 H   0  0  0  0  0  0  0  0  0  0  0  0
   10.4340    8.7020   22.7590 H   0  0  0  0  0  0  0  0  0  0  0  0
    6.6600    9.1520   25.7870 H   0  0  0  0  0  0  0  0  0  0  0  0
    5.4160   11.0360   27.1130 H   0  0  0  0  0  0  0  0  0  0  0  0
    6.2710   13.3610   26.8610 H   0  0  0  0  0  0  0  0  0  0  0  0
    8.2830   13.9220   25.3730 H   0  0  0  0  0  0  0  0  0  0  0  0
   10.2680   16.1230   22.8540 H   0  0  0  0  0  0  0  0  0  0  0  0
    9.3370   15.5160   21.5020 H   0  0  0  0  0  0  0  0  0  0  0  0
   10.0020   17.6250   21.0160 H   0  0  0  0  0  0  0  0  0  0  0  0
   11.6440   17.2930   21.5450 H   0  0  0  0  0  0  0  0  0  0  0  0
   12.4210   15.4360   18.5700 H   0  0  0  0  0  0  0  0  0  0  0  0
   13.0710   15.9720   20.1230 H   0  0  0  0  0  0  0  0  0  0  0  0
   12.4770   13.5700   20.1760 H   0  0  0  0  0  0  0  0  0  0  0  0
   10.8590   13.9830   19.6910 H   0  0  0  0  0  0  0  0  0  0  0  0
  1  2  2  0
  2  3  1  0
  3  4  1  0
  2  5  1  0
  5  6  1  0
  6  7  1  0
  7  8  1  0
  8  9  1  0
  9 10  2  0
  9 11  1  0
 11 12  2  0
 12 13  1  0
 13 14  2  0
 14 15  1  0
 14 16  1  0
 16 17  2  0
 17 18  1  0
 18 19  2  0
 19 20  1  0
 20 21  2  0
  7 22  1  0
 22 23  1  0
 23 24  1  0
 24 25  1  0
 25 26  1  0
 26  7  1  0
 21 11  1  0
 21 16  1  0
  3 27  1  0
  3 28  1  0
  5 29  1  0
  6 30  1  0
  6 31  1  0
  8 32  1  0
 12 33  1  0
 13 34  1  0
 17 35  1  0
 18 36  1  0
 19 37  1  0
 20 38  1  0
 22 39  1  0
 22 40  1  0
 23 41  1  0
 23 42  1  0
 25 43  1  0
 25 44  1  0
 26 45  1  0
 26 46  1  0
A    1
 O1 
A    2
 C1 
A    3
 C2 
A    4
CL1 
A    5
 N1 
A    6
 C3 
A    7
 C4 
A    8
 N2 
A    9
 C5 
A   10
 O2 
A   11
 C6 
A   12
 C7 
A   13
 C8 
A   14
 C9 
A   15
 F1 
A   16
 C10
A   17
 C11
A   18
 C12
A   19
 C13
A   20
 C14
A   21
 C15
A   22
 C16
A   23
 C17
A   24
 O3 
A   25
 C18
A   26
 C19
A   27
 H1 
A   28
 H2 
A   29
 H3 
A   30
 H4 
A   31
 H5 
A   32
 H6 
A   33
 H7 
A   34
 H8 
A   35
 H9 
A   36
 H10
A   37
 H11
A   38
 H12
A   39
 H13
A   40
 H14
A   41
 H15
A   42
 H16
A   43
 H17
A   44
 H18
A   45
 H19
A   46
 H20
M  END
>  <ref_pdb>  (1) 
x0451_0A

>  <ref_mols>  (1) 
x0451_0A,x0554_0A,x0556_0A,x0566_0A,x0310_0A,x0416_0A

>  <original SMILES>  (1) 
O=C(CCl)NCC1(NC(=O)c2ccc(F)c3ccccc23)CCOCC1

>  <rationale>  (1) 
info info set:ROCS-cov2;Warhead 1.220555467809636Å to Cys110:SG; hbond:S125+H21; 

>  <∆∆G>  (1) 
-6.126684

>  <comRMSD>  (1) 
0.567791

>  <ROCS_TanimotoCombo>  (1) 
0.543

>  <ROCS_ShapeTanimoto>  (1) 
0.391

>  <ROCS_ColorTanimoto>  (1) 
0.151

>  <distance>  (1) 
1.220555

$$$$
Z2737383535
     RDKit          3D

 34 35  0  0  0  0  0  0  0  0999 V2000
   13.1270   12.2070   24.0410 C   0  0  0  0  0  0  0  0  0  0  0  0
   12.2840   13.0390   23.0740 C   0  0  0  0  0  0  0  0  0  0  0  0
   10.8850   13.3160   23.6010 C   0  0  0  0  0  0  0  0  0  0  0  0
   10.6330   14.3510   24.2050 O   0  0  0  0  0  0  0  0  0  0  0  0
    9.9020   12.2500   23.3360 N   0  0  0  0  0  0  0  0  0  0  0  0
    8.5010   12.6520   23.5530 C   0  0  0  0  0  0  0  0  0  0  0  0
    7.8080   12.0740   24.6530 C   0  0  0  0  0  0  0  0  0  0  0  0
    7.2830   13.0690   25.4350 C   0  0  0  0  0  0  0  0  0  0  0  0
    6.4850   12.6740   26.6680 C   0  0  0  0  0  0  0  0  0  0  0  0
    6.3060   11.2620   26.9830 C   0  0  0  0  0  0  0  0  0  0  0  0
    6.9580   10.2800   26.0110 C   0  0  0  0  0  0  0  0  0  0  0  0
    7.6640   10.7210   24.9080 C   0  0  0  0  0  0  0  0  0  0  0  0
    8.1920    9.7730   24.0890 O   0  0  0  0  0  0  0  0  0  0  0  0
    9.5990    9.7760   23.8040 C   0  0  0  0  0  0  0  0  0  0  0  0
    9.9170    8.4440   23.1560 C   0  0  0  0  0  0  0  0  0  0  0  0
   10.3120    9.9710   25.0530 C   0  0  0  0  0  0  0  0  0  0  0  0
   10.3130   10.8560   23.0560 C   0  0  0  0  0  0  0  0  0  0  0  0
   14.1550   11.9310   23.7940 H   0  0  0  0  0  0  0  0  0  0  0  0
   12.7290   11.8650   25.0010 H   0  0  0  0  0  0  0  0  0  0  0  0
   12.6180   13.4030   22.1140 H   0  0  0  0  0  0  0  0  0  0  0  0
    7.9260   12.4930   22.6490 H   0  0  0  0  0  0  0  0  0  0  0  0
    8.5040   13.7360   23.6880 H   0  0  0  0  0  0  0  0  0  0  0  0
    7.4290   14.1250   25.1820 H   0  0  0  0  0  0  0  0  0  0  0  0
    6.0530   13.4390   27.3090 H   0  0  0  0  0  0  0  0  0  0  0  0
    5.7460   10.9270   27.8520 H   0  0  0  0  0  0  0  0  0  0  0  0
    6.8580    9.2260   26.1930 H   0  0  0  0  0  0  0  0  0  0  0  0
   10.9390    8.1440   23.3620 H   0  0  0  0  0  0  0  0  0  0  0  0
    9.7790    8.5110   22.0770 H   0  0  0  0  0  0  0  0  0  0  0  0
    9.2600    7.6540   23.5330 H   0  0  0  0  0  0  0  0  0  0  0  0
   10.8220   10.9430   25.0490 H   0  0  0  0  0  0  0  0  0  0  0  0
    9.5850   10.0270   25.8480 H   0  0  0  0  0  0  0  0  0  0  0  0
   11.0580    9.2120   25.2230 H   0  0  0  0  0  0  0  0  0  0  0  0
   11.3740   10.8250   23.3200 H   0  0  0  0  0  0  0  0  0  0  0  0
   10.3030   10.5430   22.0440 H   0  0  0  0  0  0  0  0  0  0  0  0
  1  2  2  0
  2  3  1  0
  3  4  2  0
  3  5  1  0
  5  6  1  0
  6  7  1  0
  7  8  2  0
  8  9  1  0
  9 10  2  0
 10 11  1  0
 11 12  2  0
 12 13  1  0
 13 14  1  0
 14 15  1  0
 14 16  1  0
 14 17  1  0
 17  5  1  0
 12  7  1  0
  1 18  1  0
  1 19  1  0
  2 20  1  0
  6 21  1  0
  6 22  1  0
  8 23  1  0
  9 24  1  0
 10 25  1  0
 11 26  1  0
 15 27  1  0
 15 28  1  0
 15 29  1  0
 16 30  1  0
 16 31  1  0
 16 32  1  0
 17 33  1  0
 17 34  1  0
A    1
 C1 
A    2
 C2 
A    3
 C3 
A    4
 O1 
A    5
 N1 
A    6
 C4 
A    7
 C5 
A    8
 C6 
A    9
 C7 
A   10
 C8 
A   11
 C9 
A   12
 C10
A   13
 O2 
A   14
 C11
A   15
 C12
A   16
 C13
A   17
 C14
A   18
 H1 
A   19
 H2 
A   20
 H3 
A   21
 H4 
A   22
 H5 
A   23
 H6 
A   24
 H7 
A   25
 H8 
A   26
 H9 
A   27
 H10
A   28
 H11
A   29
 H12
A   30
 H13
A   31
 H14
A   32
 H15
A   33
 H16
A   34
 H17
M  END
>  <ref_pdb>  (2) 
x0451_0A

>  <ref_mols>  (2) 
x0451_0A,x0554_0A,x0556_0A,x0566_0A,x0310_0A,x0416_0A

>  <original SMILES>  (2) 
C=CC(=O)N1Cc2ccccc2OC(C)(C)C1

>  <rationale>  (2) 
info info set:ROCS-electro;Warhead 1.8752457492286174Å to Cys110:SG; hydroph_interaction:A110+V124+D109; 

>  <∆∆G>  (2) 
-5.852993

>  <comRMSD>  (2) 
0.366929

>  <ROCS_TanimotoCombo>  (2) 
0.454

>  <ROCS_ShapeTanimoto>  (2) 
0.305

>  <ROCS_ColorTanimoto>  (2) 
0.15

>  <distance>  (2) 
1.875246

$$$$
Z4425283220
     RDKit          3D

 46 48  0  0  0  0  0  0  0  0999 V2000
   14.6050   10.8700   25.0900 C   0  0  0  0  0  0  0  0  0  0  0  0
   14.6720   12.3720   24.9620 C   0  0  0  0  0  0  0  0  0  0  0  0
   13.4060   13.1440   24.6820 C   0  0  0  0  0  0  0  0  0  0  0  0
   12.6850   13.4450   25.6220 O   0  0  0  0  0  0  0  0  0  0  0  0
   13.1770   13.4540   23.3740 N   0  0  0  0  0  0  0  0  0  0  0  0
   12.5950   14.7400   23.0760 C   0  0  0  0  0  0  0  0  0  0  0  0
   11.4910   14.6120   22.2530 C   0  0  2  0  0  0  0  0  0  0  0  0
   10.7600   13.4270   22.5440 N   0  0  0  0  0  0  0  0  0  0  0  0
   10.3860   13.1370   23.7460 C   0  0  0  0  0  0  0  0  0  0  0  0
   10.4740   13.8750   24.7260 O   0  0  0  0  0  0  0  0  0  0  0  0
    9.8540   11.8820   23.8360 C   0  0  0  0  0  0  0  0  0  0  0  0
   10.5100   10.8860   23.1290 C   0  0  0  0  0  0  0  0  0  0  0  0
   10.0280    9.6070   23.1540 C   0  0  0  0  0  0  0  0  0  0  0  0
    8.7820    9.2390   23.9470 C   0  0  0  0  0  0  0  0  0  0  0  0
    8.3680    7.9870   23.9280 F   0  0  0  0  0  0  0  0  0  0  0  0
    8.1780   10.2940   24.6450 C   0  0  0  0  0  0  0  0  0  0  0  0
    6.9650   10.2530   25.5100 C   0  0  0  0  0  0  0  0  0  0  0  0
    6.6250   11.5680   26.0780 C   0  0  0  0  0  0  0  0  0  0  0  0
    7.7570   12.7160   25.5460 S   0  0  0  0  0  0  0  0  0  0  0  0
    8.7030   11.5960   24.5900 C   0  0  0  0  0  0  0  0  0  0  0  0
   11.8560   14.5740   20.7920 C   0  0  0  0  0  0  0  0  0  0  0  0
   10.6780   14.6130   19.8150 C   0  0  0  0  0  0  0  0  0  0  0  0
   11.0590   15.5100   18.6300 C   0  0  0  0  0  0  0  0  0  0  0  0
   12.5170   15.3530   18.8120 C   0  0  0  0  0  0  0  0  0  0  0  0
   12.6030   15.7290   20.2790 C   0  0  0  0  0  0  0  0  0  0  0  0
   13.6560   10.3410   24.9770 H   0  0  0  0  0  0  0  0  0  0  0  0
   15.5320   10.3190   25.2930 H   0  0  0  0  0  0  0  0  0  0  0  0
   15.6210   12.9060   25.0740 H   0  0  0  0  0  0  0  0  0  0  0  0
   13.9020   13.1760   22.7290 H   0  0  0  0  0  0  0  0  0  0  0  0
   13.3990   15.3720   22.7240 H   0  0  0  0  0  0  0  0  0  0  0  0
   12.2560   15.1410   24.0330 H   0  0  0  0  0  0  0  0  0  0  0  0
   10.8050   15.4480   22.4160 H   0  0  0  0  0  0  0  0  0  0  0  0
   10.8780   12.6580   21.8730 H   0  0  0  0  0  0  0  0  0  0  0  0
   11.3970   11.1000   22.5540 H   0  0  0  0  0  0  0  0  0  0  0  0
   10.4960    8.7790   22.6150 H   0  0  0  0  0  0  0  0  0  0  0  0
    6.3850    9.3630   25.7100 H   0  0  0  0  0  0  0  0  0  0  0  0
    5.8070   11.8340   26.7320 H   0  0  0  0  0  0  0  0  0  0  0  0
   12.4300   13.6670   20.5910 H   0  0  0  0  0  0  0  0  0  0  0  0
   10.5040   13.6120   19.4590 H   0  0  0  0  0  0  0  0  0  0  0  0
    9.7560   14.9770   20.2800 H   0  0  0  0  0  0  0  0  0  0  0  0
   10.7360   16.5470   18.7740 H   0  0  0  0  0  0  0  0  0  0  0  0
   10.6870   15.1280   17.6720 H   0  0  0  0  0  0  0  0  0  0  0  0
   13.0520   15.9730   18.1130 H   0  0  0  0  0  0  0  0  0  0  0  0
   12.8090   14.3190   18.6600 H   0  0  0  0  0  0  0  0  0  0  0  0
   12.0180   16.5970   20.5170 H   0  0  0  0  0  0  0  0  0  0  0  0
   13.5990   15.8250   20.6950 H   0  0  0  0  0  0  0  0  0  0  0  0
  1  2  2  0
  2  3  1  0
  3  4  2  0
  3  5  1  0
  5  6  1  0
  6  7  1  0
  7  8  1  0
  8  9  1  0
  9 10  2  0
  9 11  1  0
 11 12  2  0
 12 13  1  0
 13 14  2  0
 14 15  1  0
 14 16  1  0
 16 17  1  0
 17 18  2  0
 18 19  1  0
 19 20  1  0
  7 21  1  0
 21 22  1  0
 22 23  1  0
 23 24  1  0
 24 25  1  0
 20 11  1  0
 25 21  1  0
 20 16  2  0
  1 26  1  0
  1 27  1  0
  2 28  1  0
  5 29  1  0
  6 30  1  0
  6 31  1  0
  7 32  1  6
  8 33  1  0
 12 34  1  0
 13 35  1  0
 17 36  1  0
 18 37  1  0
 21 38  1  0
 22 39  1  0
 22 40  1  0
 23 41  1  0
 23 42  1  0
 24 43  1  0
 24 44  1  0
 25 45  1  0
 25 46  1  0
A    1
 C1 
A    2
 C2 
A    3
 C3 
A    4
 O1 
A    5
 N1 
A    6
 C4 
A    7
 C5 
A    8
 N2 
A    9
 C6 
A   10
 O2 
A   11
 C7 
A   12
 C8 
A   13
 C9 
A   14
 C10
A   15
 F1 
A   16
 C11
A   17
 C12
A   18
 C13
A   19
 S1 
A   20
 C14
A   21
 C15
A   22
 C16
A   23
 C17
A   24
 C18
A   25
 C19
A   26
 H1 
A   27
 H2 
A   28
 H3 
A   29
 H4 
A   30
 H5 
A   31
 H6 
A   32
 H7 
A   33
 H8 
A   34
 H9 
A   35
 H10
A   36
 H11
A   37
 H12
A   38
 H13
A   39
 H14
A   40
 H15
A   41
 H16
A   42
 H17
A   43
 H18
A   44
 H19
A   45
 H20
A   46
 H21
M  END
>  <ref_pdb>  (3) 
x0451_0A

>  <ref_mols>  (3) 
x0451_0A,x0554_0A,x0556_0A,x0566_0A,x0310_0A,x0416_0A

>  <original SMILES>  (3) 
C=CC(=O)NC[C@H](NC(=O)c1ccc(F)c2ccsc12)C1CCCC1

>  <rationale>  (3) 
info info set:ROCS-cov2;Warhead 0.5417353874356006Å to Cys110:SG; hbond:S125; hydroph_interaction:Y89+Y90+A110+D39; 

>  <∆∆G>  (3) 
-5.684239

>  <comRMSD>  (3) 
0.805696

>  <ROCS_TanimotoCombo>  (3) 
0.549

>  <ROCS_ShapeTanimoto>  (3) 
0.379

>  <ROCS_ColorTanimoto>  (3) 
0.17

>  <distance>  (3) 
0.541735

$$$$
Z56893166
     RDKit          3D

 54 57  0  0  0  0  0  0  0  0999 V2000
    9.6840    9.5760   23.9470 C   0  0  0  0  0  0  0  0  0  0  0  0
    8.6670   10.6850   24.3500 C   0  0  0  0  0  0  0  0  0  0  0  0
    9.0880   12.1150   24.5530 C   0  0  0  0  0  0  0  0  0  0  0  0
   10.2940   12.6390   24.4730 N   0  0  0  0  0  0  0  0  0  0  0  0
   10.3980   14.0930   24.3950 C   0  0  0  0  0  0  0  0  0  0  0  0
   10.0280   15.0170   25.0720 O   0  0  0  0  0  0  0  0  0  0  0  0
   11.1420   14.0610   23.1900 C   0  0  0  0  0  0  0  0  0  0  0  0
   12.0110   12.9630   23.5650 C   0  0  0  0  0  0  0  0  0  0  0  0
   12.2160   12.1880   24.6940 N   0  0  0  0  0  0  0  0  0  0  0  0
   12.9570   11.0620   24.8400 C   0  0  0  0  0  0  0  0  0  0  0  0
   12.4790    9.9460   24.7640 O   0  0  0  0  0  0  0  0  0  0  0  0
   14.4440   11.2800   25.1910 C   0  0  0  0  0  0  0  0  0  0  0  0
   14.5840   11.9840   26.8120 Cl  0  0  0  0  0  0  0  0  0  0  0  0
   12.8770   12.6860   22.2600 S   0  0  0  0  0  0  0  0  0  0  0  0
   12.2680   13.9850   21.2720 C   0  0  0  0  0  0  0  0  0  0  0  0
   11.2900   14.6480   21.9170 C   0  0  0  0  0  0  0  0  0  0  0  0
   10.6360   15.7710   21.1590 C   0  0  0  0  0  0  0  0  0  0  0  0
   10.6960   15.7290   19.7490 C   0  0  0  0  0  0  0  0  0  0  0  0
   11.7520   15.0750   19.1110 C   0  0  0  0  0  0  0  0  0  0  0  0
   12.6830   14.3820   19.8900 C   0  0  0  0  0  0  0  0  0  0  0  0
    7.8710   12.8340   24.8720 C   0  0  0  0  0  0  0  0  0  0  0  0
    7.7740   14.0490   24.8690 O   0  0  0  0  0  0  0  0  0  0  0  0
    6.9420   11.8430   25.1570 N   0  0  0  0  0  0  0  0  0  0  0  0
    6.0940   11.9870   26.2650 C   0  0  0  0  0  0  0  0  0  0  0  0
    5.6820   13.2770   26.6170 C   0  0  0  0  0  0  0  0  0  0  0  0
    4.8460   13.4940   27.7060 C   0  0  0  0  0  0  0  0  0  0  0  0
    4.4070   12.4130   28.4640 C   0  0  0  0  0  0  0  0  0  0  0  0
    4.8050   11.1230   28.1270 C   0  0  0  0  0  0  0  0  0  0  0  0
    5.6400   10.9120   27.0370 C   0  0  0  0  0  0  0  0  0  0  0  0
    7.3270   10.5590   24.6090 N   0  0  0  0  0  0  0  0  0  0  0  0
    7.0570    9.5920   25.6040 C   0  0  0  0  0  0  0  0  0  0  0  0
   10.4860    9.3750   24.6600 H   0  0  0  0  0  0  0  0  0  0  0  0
   10.1730    9.6840   22.9750 H   0  0  0  0  0  0  0  0  0  0  0  0
    9.1020    8.6480   23.8910 H   0  0  0  0  0  0  0  0  0  0  0  0
   11.0350   12.2130   25.0240 H   0  0  0  0  0  0  0  0  0  0  0  0
   11.8600   12.6080   25.5430 H   0  0  0  0  0  0  0  0  0  0  0  0
   14.8420   12.0120   24.4850 H   0  0  0  0  0  0  0  0  0  0  0  0
   15.1110   10.4220   25.1800 H   0  0  0  0  0  0  0  0  0  0  0  0
   11.0800   16.7190   21.4830 H   0  0  0  0  0  0  0  0  0  0  0  0
    9.5820   15.8040   21.4560 H   0  0  0  0  0  0  0  0  0  0  0  0
    9.7600   15.2810   19.3980 H   0  0  0  0  0  0  0  0  0  0  0  0
   10.6780   16.7610   19.3790 H   0  0  0  0  0  0  0  0  0  0  0  0
   12.2980   15.7980   18.5060 H   0  0  0  0  0  0  0  0  0  0  0  0
   11.3560   14.3560   18.3860 H   0  0  0  0  0  0  0  0  0  0  0  0
   13.5670   15.0100   19.9410 H   0  0  0  0  0  0  0  0  0  0  0  0
   12.9600   13.4680   19.3590 H   0  0  0  0  0  0  0  0  0  0  0  0
    6.0110   14.1370   26.0420 H   0  0  0  0  0  0  0  0  0  0  0  0
    4.5380   14.5010   27.9650 H   0  0  0  0  0  0  0  0  0  0  0  0
    3.7530   12.5760   29.3190 H   0  0  0  0  0  0  0  0  0  0  0  0
    4.4650   10.2740   28.7160 H   0  0  0  0  0  0  0  0  0  0  0  0
    5.9260    9.8880   26.8070 H   0  0  0  0  0  0  0  0  0  0  0  0
    7.3640    9.9750   26.5770 H   0  0  0  0  0  0  0  0  0  0  0  0
    7.6480    8.7000   25.4330 H   0  0  0  0  0  0  0  0  0  0  0  0
    5.9960    9.3430   25.6460 H   0  0  0  0  0  0  0  0  0  0  0  0
  1  2  1  0
  2  3  2  0
  3  4  1  0
  4  5  1  0
  5  6  2  0
  5  7  1  0
  7  8  2  0
  8  9  1  0
  9 10  1  0
 10 11  2  0
 10 12  1  0
 12 13  1  0
  8 14  1  0
 14 15  1  0
 15 16  2  0
 16 17  1  0
 17 18  1  0
 18 19  1  0
 19 20  1  0
  3 21  1  0
 21 22  2  0
 21 23  1  0
 23 24  1  0
 24 25  2  0
 25 26  1  0
 26 27  2  0
 27 28  1  0
 28 29  2  0
 23 30  1  0
 30 31  1  0
 30  2  1  0
 16  7  1  0
 29 24  1  0
 20 15  1  0
  1 32  1  0
  1 33  1  0
  1 34  1  0
  4 35  1  0
  9 36  1  0
 12 37  1  0
 12 38  1  0
 17 39  1  0
 17 40  1  0
 18 41  1  0
 18 42  1  0
 19 43  1  0
 19 44  1  0
 20 45  1  0
 20 46  1  0
 25 47  1  0
 26 48  1  0
 27 49  1  0
 28 50  1  0
 29 51  1  0
 31 52  1  0
 31 53  1  0
 31 54  1  0
A    1
 C1 
A    2
 C2 
A    3
 C3 
A    4
 N1 
A    5
 C4 
A    6
 O1 
A    7
 C5 
A    8
 C6 
A    9
 N2 
A   10
 C7 
A   11
 O2 
A   12
 C8 
A   13
CL1 
A   14
 S1 
A   15
 C9 
A   16
 C10
A   17
 C11
A   18
 C12
A   19
 C13
A   20
 C14
A   21
 C15
A   22
 O3 
A   23
 N3 
A   24
 C16
A   25
 C17
A   26
 C18
A   27
 C19
A   28
 C20
A   29
 C21
A   30
 N4 
A   31
 C22
A   32
 H1 
A   33
 H2 
A   34
 H3 
A   35
 H4 
A   36
 H5 
A   37
 H6 
A   38
 H7 
A   39
 H8 
A   40
 H9 
A   41
 H10
A   42
 H11
A   43
 H12
A   44
 H13
A   45
 H14
A   46
 H15
A   47
 H16
A   48
 H17
A   49
 H18
A   50
 H19
A   51
 H20
A   52
 H21
A   53
 H22
A   54
 H23
M  END
>  <ref_pdb>  (4) 
x0451_0A

>  <ref_mols>  (4) 
x0451_0A,x0554_0A,x0556_0A,x0566_0A,x0310_0A,x0416_0A

>  <original SMILES>  (4) 
Cc1c(NC(=O)c2c(NC(=O)CCl)sc3c2CCCC3)c(=O)n(-c2ccccc2)n1C

>  <rationale>  (4) 
info info set:ROCS-cov2;Warhead 2.3167204622051427Å to Cys110:SG; hbond:D109+A110+G108; hydroph_interaction:Y90; pistack:H21+Y89; 

>  <∆∆G>  (4) 
-5.228785

>  <comRMSD>  (4) 
1.117617

>  <ROCS_TanimotoCombo>  (4) 
0.549

>  <ROCS_ShapeTanimoto>  (4) 
0.402

>  <ROCS_ColorTanimoto>  (4) 
0.147

>  <distance>  (4) 
2.31672

$$$$
Z57984421
     RDKit          3D

 32 33  0  0  0  0  0  0  0  0999 V2000
   11.6660   15.0050   20.4820 C   0  0  0  0  0  0  0  0  0  0  0  0
   10.7460   14.5650   21.4890 O   0  0  0  0  0  0  0  0  0  0  0  0
   10.9880   15.0920   22.7160 C   0  0  0  0  0  0  0  0  0  0  0  0
   11.3190   16.2520   22.8180 O   0  0  0  0  0  0  0  0  0  0  0  0
   10.8310   14.2460   23.9040 C   0  0  1  0  0  0  0  0  0  0  0  0
    9.3880   13.7740   23.9480 C   0  0  0  0  0  0  0  0  0  0  0  0
    9.0870   12.4110   24.1750 C   0  0  0  0  0  0  0  0  0  0  0  0
    7.9580   11.9720   24.8880 C   0  0  0  0  0  0  0  0  0  0  0  0
    7.6930   10.6240   25.1090 C   0  0  0  0  0  0  0  0  0  0  0  0
    8.6650    9.6210   24.5510 C   0  0  0  0  0  0  0  0  0  0  0  0
    9.8330   10.1270   23.7950 C   0  0  0  0  0  0  0  0  0  0  0  0
    9.9820   11.5040   23.6480 C   0  0  0  0  0  0  0  0  0  0  0  0
   11.0970   12.1020   22.9440 C   0  0  0  0  0  0  0  0  0  0  0  0
   11.6300   13.1000   23.7620 N   0  0  0  0  0  0  0  0  0  0  0  0
   12.9070   12.8340   24.2210 C   0  0  0  0  0  0  0  0  0  0  0  0
   13.7900   13.6000   24.0100 O   0  0  0  0  0  0  0  0  0  0  0  0
   13.1320   11.6770   24.9090 C   0  0  0  0  0  0  0  0  0  0  0  0
   14.8250   11.5690   25.4350 Cl  0  0  0  0  0  0  0  0  0  0  0  0
   12.5880   15.3820   20.9310 H   0  0  0  0  0  0  0  0  0  0  0  0
   11.9140   14.1440   19.8510 H   0  0  0  0  0  0  0  0  0  0  0  0
   11.2140   15.7760   19.8590 H   0  0  0  0  0  0  0  0  0  0  0  0
   11.2460   14.6390   24.8240 H   0  0  0  0  0  0  0  0  0  0  0  0
    8.9160   14.0430   22.9970 H   0  0  0  0  0  0  0  0  0  0  0  0
    8.8790   14.3550   24.7240 H   0  0  0  0  0  0  0  0  0  0  0  0
    7.3210   12.7830   25.2470 H   0  0  0  0  0  0  0  0  0  0  0  0
    6.8100   10.3050   25.6720 H   0  0  0  0  0  0  0  0  0  0  0  0
    8.5430    8.5600   24.6840 H   0  0  0  0  0  0  0  0  0  0  0  0
   10.5570    9.4310   23.3700 H   0  0  0  0  0  0  0  0  0  0  0  0
   10.7490   12.6210   22.0610 H   0  0  0  0  0  0  0  0  0  0  0  0
   11.8650   11.3780   22.7040 H   0  0  0  0  0  0  0  0  0  0  0  0
   12.5170   11.6680   25.8100 H   0  0  0  0  0  0  0  0  0  0  0  0
   12.9110   10.8070   24.2870 H   0  0  0  0  0  0  0  0  0  0  0  0
  1  2  1  0
  2  3  1  0
  3  4  2  0
  3  5  1  0
  5  6  1  0
  6  7  1  0
  7  8  2  0
  8  9  1  0
  9 10  2  0
 10 11  1  0
 11 12  2  0
 12 13  1  0
 13 14  1  0
 14 15  1  0
 15 16  2  0
 15 17  1  0
 17 18  1  0
 14  5  1  0
 12  7  1  0
  1 19  1  0
  1 20  1  0
  1 21  1  0
  5 22  1  1
  6 23  1  0
  6 24  1  0
  8 25  1  0
  9 26  1  0
 10 27  1  0
 11 28  1  0
 13 29  1  0
 13 30  1  0
 17 31  1  0
 17 32  1  0
A    1
 C1 
A    2
 O1 
A    3
 C2 
A    4
 O2 
A    5
 C3 
A    6
 C4 
A    7
 C5 
A    8
 C6 
A    9
 C7 
A   10
 C8 
A   11
 C9 
A   12
 C10
A   13
 C11
A   14
 N1 
A   15
 C12
A   16
 O3 
A   17
 C13
A   18
CL1 
A   19
 H1 
A   20
 H2 
A   21
 H3 
A   22
 H4 
A   23
 H5 
A   24
 H6 
A   25
 H7 
A   26
 H8 
A   27
 H9 
A   28
 H10
A   29
 H11
A   30
 H12
A   31
 H13
A   32
 H14
M  END
>  <ref_pdb>  (5) 
x0451_0A

>  <ref_mols>  (5) 
x0451_0A,x0554_0A,x0556_0A,x0566_0A,x0310_0A,x0416_0A

>  <original SMILES>  (5) 
COC(=O)[C@H]1Cc2ccccc2CN1C(=O)CCl

>  <rationale>  (5) 
info info set:ROCS-electro;Warhead 1.2583977908435795Å to Cys110:SG; hbond:S87; saltbridge:H21; 

>  <∆∆G>  (5) 
-5.100627

>  <comRMSD>  (5) 
0.470986

>  <ROCS_TanimotoCombo>  (5) 
0.422

>  <ROCS_ShapeTanimoto>  (5) 
0.309

>  <ROCS_ColorTanimoto>  (5) 
0.113

>  <distance>  (5) 
1.258398

$$$$
Z2737383447
     RDKit          3D

 41 42  0  0  0  0  0  0  0  0999 V2000
   13.1670   12.2560   26.0650 C   0  0  0  0  0  0  0  0  0  0  0  0
   12.0470   12.6760   25.1520 C   0  0  0  0  0  0  0  0  0  0  0  0
   12.4680   13.2800   23.9530 C   0  0  0  0  0  0  0  0  0  0  0  0
   13.6670   13.4020   23.9070 O   0  0  0  0  0  0  0  0  0  0  0  0
   11.5940   13.6920   22.9520 N   0  0  0  0  0  0  0  0  0  0  0  0
   12.0600   14.3770   21.7320 C   0  0  0  0  0  0  0  0  0  0  0  0
   11.3980   15.5580   21.4750 C   0  0  0  0  0  0  0  0  0  0  0  0
    9.9770   15.6980   22.0290 C   0  0  0  0  0  0  0  0  0  0  0  0
    9.4590   14.4300   22.1370 C   0  0  0  0  0  0  0  0  0  0  0  0
   10.2460   13.7110   23.2350 C   0  0  1  0  0  0  0  0  0  0  0  0
    9.6930   12.3430   23.6690 C   0  0  0  0  0  0  0  0  0  0  0  0
   10.1140   11.0210   23.2800 C   0  0  0  0  0  0  0  0  0  0  0  0
    9.1710   10.1350   24.0600 C   0  0  0  0  0  0  0  0  0  0  0  0
    8.3070   10.8920   24.8220 C   0  0  0  0  0  0  0  0  0  0  0  0
    7.2420   10.6560   25.7480 C   0  0  0  0  0  0  0  0  0  0  0  0
    7.0080   11.4300   26.6550 O   0  0  0  0  0  0  0  0  0  0  0  0
    6.4540    9.5990   25.6450 N   0  0  0  0  0  0  0  0  0  0  0  0
    5.3030    9.7210   26.4780 C   0  0  0  0  0  0  0  0  0  0  0  0
    8.6430   12.2080   24.5580 N   0  0  0  0  0  0  0  0  0  0  0  0
    7.9240   13.2890   25.1910 C   0  0  0  0  0  0  0  0  0  0  0  0
   14.2050   12.4220   25.7630 H   0  0  0  0  0  0  0  0  0  0  0  0
   12.9900   11.7950   27.0290 H   0  0  0  0  0  0  0  0  0  0  0  0
   10.9900   12.5570   25.3550 H   0  0  0  0  0  0  0  0  0  0  0  0
   13.0710   14.7230   21.9200 H   0  0  0  0  0  0  0  0  0  0  0  0
   12.1750   13.7110   20.8840 H   0  0  0  0  0  0  0  0  0  0  0  0
   11.4870   15.8800   20.4440 H   0  0  0  0  0  0  0  0  0  0  0  0
   11.9960   16.3210   21.9820 H   0  0  0  0  0  0  0  0  0  0  0  0
   10.0160   16.1510   23.0190 H   0  0  0  0  0  0  0  0  0  0  0  0
    9.3590   16.3370   21.3880 H   0  0  0  0  0  0  0  0  0  0  0  0
    8.3890   14.4960   22.3780 H   0  0  0  0  0  0  0  0  0  0  0  0
    9.5330   13.9470   21.1690 H   0  0  0  0  0  0  0  0  0  0  0  0
   10.1700   14.3940   24.0840 H   0  0  0  0  0  0  0  0  0  0  0  0
   10.9070   10.7410   22.5990 H   0  0  0  0  0  0  0  0  0  0  0  0
    9.2900    9.0530   23.9320 H   0  0  0  0  0  0  0  0  0  0  0  0
    6.3560    9.1730   24.7550 H   0  0  0  0  0  0  0  0  0  0  0  0
    4.8930   10.7200   26.3310 H   0  0  0  0  0  0  0  0  0  0  0  0
    5.6180    9.6150   27.5170 H   0  0  0  0  0  0  0  0  0  0  0  0
    4.5440    8.9850   26.2590 H   0  0  0  0  0  0  0  0  0  0  0  0
    6.8530   13.1440   25.0250 H   0  0  0  0  0  0  0  0  0  0  0  0
    8.1660   13.2750   26.2580 H   0  0  0  0  0  0  0  0  0  0  0  0
    8.1970   14.2510   24.7640 H   0  0  0  0  0  0  0  0  0  0  0  0
  1  2  2  0
  2  3  1  0
  3  4  2  0
  3  5  1  0
  5  6  1  0
  6  7  1  0
  7  8  1  0
  8  9  1  0
  9 10  1  0
 10 11  1  0
 11 12  2  0
 12 13  1  0
 13 14  2  0
 14 15  1  0
 15 16  2  0
 15 17  1  0
 17 18  1  0
 14 19  1  0
 19 20  1  0
 10  5  1  0
 19 11  1  0
  1 21  1  0
  1 22  1  0
  2 23  1  0
  6 24  1  0
  6 25  1  0
  7 26  1  0
  7 27  1  0
  8 28  1  0
  8 29  1  0
  9 30  1  0
  9 31  1  0
 10 32  1  1
 12 33  1  0
 13 34  1  0
 17 35  1  0
 18 36  1  0
 18 37  1  0
 18 38  1  0
 20 39  1  0
 20 40  1  0
 20 41  1  0
A    1
 C1 
A    2
 C2 
A    3
 C3 
A    4
 O1 
A    5
 N1 
A    6
 C4 
A    7
 C5 
A    8
 C6 
A    9
 C7 
A   10
 C8 
A   11
 C9 
A   12
 C10
A   13
 C11
A   14
 C12
A   15
 C13
A   16
 O2 
A   17
 N2 
A   18
 C14
A   19
 N3 
A   20
 C15
A   21
 H1 
A   22
 H2 
A   23
 H3 
A   24
 H4 
A   25
 H5 
A   26
 H6 
A   27
 H7 
A   28
 H8 
A   29
 H9 
A   30
 H10
A   31
 H11
A   32
 H12
A   33
 H13
A   34
 H14
A   35
 H15
A   36
 H16
A   37
 H17
A   38
 H18
A   39
 H19
A   40
 H20
A   41
 H21
M  END
>  <ref_pdb>  (6) 
x0451_0A

>  <ref_mols>  (6) 
x0451_0A,x0554_0A,x0556_0A,x0566_0A,x0310_0A,x0416_0A

>  <original SMILES>  (6) 
C=CC(=O)N1CCCC[C@H]1c1ccc(C(=O)NC)n1C

>  <rationale>  (6) 
info info set:ROCS-electro;Warhead 2.268741120092816Å to Cys110:SG; hbond:S105; hydroph_interaction:Y89+Y90; 

>  <∆∆G>  (6) 
-5.08992

>  <comRMSD>  (6) 
0.819694

>  <ROCS_TanimotoCombo>  (6) 
0.424

>  <ROCS_ShapeTanimoto>  (6) 
0.314

>  <ROCS_ColorTanimoto>  (6) 
0.11

>  <distance>  (6) 
2.268741

$$$$
Z4425210965
     RDKit          3D

 52 53  0  0  0  0  0  0  0  0999 V2000
    5.4980   11.8650   29.1660 C   0  0  0  0  0  0  0  0  0  0  0  0
    5.1250   12.0760   27.7090 C   0  0  0  0  0  0  0  0  0  0  0  0
    3.9640   12.2780   27.3590 O   0  0  0  0  0  0  0  0  0  0  0  0
    6.2720   12.0140   26.8060 N   0  0  0  0  0  0  0  0  0  0  0  0
    6.4710   10.7460   26.1100 C   0  0  0  0  0  0  0  0  0  0  0  0
    7.6980   10.7690   25.2120 C   0  0  0  0  0  0  0  0  0  0  0  0
    8.2470    9.5000   24.6300 C   0  0  0  0  0  0  0  0  0  0  0  0
    9.3960    9.5510   23.7920 C   0  0  0  0  0  0  0  0  0  0  0  0
   10.0960   10.7000   23.4520 C   0  0  0  0  0  0  0  0  0  0  0  0
    9.5130   11.9500   24.0720 C   0  0  0  0  0  0  0  0  0  0  0  0
   10.1490   13.0730   23.8020 C   0  0  0  0  0  0  0  0  0  0  0  0
   10.1820   13.9560   24.6520 O   0  0  0  0  0  0  0  0  0  0  0  0
   10.7930   13.1960   22.5120 N   0  0  0  0  0  0  0  0  0  0  0  0
   11.8310   14.2060   22.3540 C   0  0  0  0  0  0  0  0  0  0  0  0
   12.7310   14.0750   23.4550 C   0  0  0  0  0  0  0  0  0  0  0  0
   13.1720   12.7400   23.7210 N   0  0  0  0  0  0  0  0  0  0  0  0
   14.2290   12.5140   24.6220 C   0  0  0  0  0  0  0  0  0  0  0  0
   15.0470   13.3280   24.9790 O   0  0  0  0  0  0  0  0  0  0  0  0
   14.4050   11.2080   25.2430 C   0  0  0  0  0  0  0  0  0  0  0  0
   14.9640   11.6310   26.8880 Cl  0  0  0  0  0  0  0  0  0  0  0  0
   12.4700   14.1580   20.9670 C   0  0  0  0  0  0  0  0  0  0  0  0
   11.7540   14.4850   19.8230 C   0  0  0  0  0  0  0  0  0  0  0  0
   10.6860   15.5330   19.9470 C   0  0  0  0  0  0  0  0  0  0  0  0
   10.1640   15.7840   21.3480 C   0  0  0  0  0  0  0  0  0  0  0  0
   11.1080   15.5740   22.3510 C   0  0  0  0  0  0  0  0  0  0  0  0
    8.3700   11.9570   24.9000 C   0  0  0  0  0  0  0  0  0  0  0  0
    5.5300   10.8010   29.4190 H   0  0  0  0  0  0  0  0  0  0  0  0
    4.7780   12.3420   29.8360 H   0  0  0  0  0  0  0  0  0  0  0  0
    6.4880   12.2870   29.3690 H   0  0  0  0  0  0  0  0  0  0  0  0
    6.4770   12.8450   26.2630 H   0  0  0  0  0  0  0  0  0  0  0  0
    6.5780    9.9370   26.8310 H   0  0  0  0  0  0  0  0  0  0  0  0
    5.5840   10.5270   25.5160 H   0  0  0  0  0  0  0  0  0  0  0  0
    7.8710    8.5010   24.7750 H   0  0  0  0  0  0  0  0  0  0  0  0
    9.7630    8.6030   23.3840 H   0  0  0  0  0  0  0  0  0  0  0  0
   10.9790   10.6960   22.8060 H   0  0  0  0  0  0  0  0  0  0  0  0
   10.8430   12.3930   21.8860 H   0  0  0  0  0  0  0  0  0  0  0  0
   13.6020   14.6800   23.3850 H   0  0  0  0  0  0  0  0  0  0  0  0
   12.2070   14.4170   24.3550 H   0  0  0  0  0  0  0  0  0  0  0  0
   13.1100   12.0800   22.9510 H   0  0  0  0  0  0  0  0  0  0  0  0
   15.2200   10.6120   24.8520 H   0  0  0  0  0  0  0  0  0  0  0  0
   13.5030   10.6290   25.3100 H   0  0  0  0  0  0  0  0  0  0  0  0
   13.2880   14.8760   20.9770 H   0  0  0  0  0  0  0  0  0  0  0  0
   12.8210   13.1540   20.8300 H   0  0  0  0  0  0  0  0  0  0  0  0
   11.3080   13.6040   19.3700 H   0  0  0  0  0  0  0  0  0  0  0  0
   12.4790   14.8360   19.0770 H   0  0  0  0  0  0  0  0  0  0  0  0
   11.0460   16.4770   19.5290 H   0  0  0  0  0  0  0  0  0  0  0  0
    9.8400   15.2370   19.3150 H   0  0  0  0  0  0  0  0  0  0  0  0
    9.2790   15.1600   21.5150 H   0  0  0  0  0  0  0  0  0  0  0  0
    9.8020   16.8190   21.4070 H   0  0  0  0  0  0  0  0  0  0  0  0
   10.5850   15.6990   23.3100 H   0  0  0  0  0  0  0  0  0  0  0  0
   11.8490   16.3810   22.3180 H   0  0  0  0  0  0  0  0  0  0  0  0
    8.0020   12.8950   25.3090 H   0  0  0  0  0  0  0  0  0  0  0  0
  1  2  1  0
  2  3  2  0
  2  4  1  0
  4  5  1  0
  5  6  1  0
  6  7  2  0
  7  8  1  0
  8  9  2  0
  9 10  1  0
 10 11  1  0
 11 12  2  0
 11 13  1  0
 13 14  1  0
 14 15  1  0
 15 16  1  0
 16 17  1  0
 17 18  2  0
 17 19  1  0
 19 20  1  0
 14 21  1  0
 21 22  1  0
 22 23  1  0
 23 24  1  0
 24 25  1  0
 10 26  2  0
 26  6  1  0
 25 14  1  0
  1 27  1  0
  1 28  1  0
  1 29  1  0
  4 30  1  0
  5 31  1  0
  5 32  1  0
  7 33  1  0
  8 34  1  0
  9 35  1  0
 13 36  1  0
 15 37  1  0
 15 38  1  0
 16 39  1  0
 19 40  1  0
 19 41  1  0
 21 42  1  0
 21 43  1  0
 22 44  1  0
 22 45  1  0
 23 46  1  0
 23 47  1  0
 24 48  1  0
 24 49  1  0
 25 50  1  0
 25 51  1  0
 26 52  1  0
A    1
 C1 
A    2
 C2 
A    3
 O1 
A    4
 N1 
A    5
 C3 
A    6
 C4 
A    7
 C5 
A    8
 C6 
A    9
 C7 
A   10
 C8 
A   11
 C9 
A   12
 O2 
A   13
 N2 
A   14
 C10
A   15
 C11
A   16
 N3 
A   17
 C12
A   18
 O3 
A   19
 C13
A   20
CL1 
A   21
 C14
A   22
 C15
A   23
 C16
A   24
 C17
A   25
 C18
A   26
 C19
A   27
 H1 
A   28
 H2 
A   29
 H3 
A   30
 H4 
A   31
 H5 
A   32
 H6 
A   33
 H7 
A   34
 H8 
A   35
 H9 
A   36
 H10
A   37
 H11
A   38
 H12
A   39
 H13
A   40
 H14
A   41
 H15
A   42
 H16
A   43
 H17
A   44
 H18
A   45
 H19
A   46
 H20
A   47
 H21
A   48
 H22
A   49
 H23
A   50
 H24
A   51
 H25
A   52
 H26
M  END
>  <ref_pdb>  (7) 
x0451_0A

>  <ref_mols>  (7) 
x0451_0A,x0554_0A,x0556_0A,x0566_0A,x0310_0A,x0416_0A

>  <original SMILES>  (7) 
CC(=O)NCc1cccc(C(=O)NC2(CNC(=O)CCl)CCCCC2)c1

>  <rationale>  (7) 
info info set:ROCS-cov2;Warhead 1.9998276275719387Å to Cys110:SG; hbond:S125; hydroph_interaction:Y89+Y90; 

>  <∆∆G>  (7) 
-4.989598

>  <comRMSD>  (7) 
0.810873

>  <ROCS_TanimotoCombo>  (7) 
0.522

>  <ROCS_ShapeTanimoto>  (7) 
0.356

>  <ROCS_ColorTanimoto>  (7) 
0.166

>  <distance>  (7) 
1.999828

$$$$
Z4425282901
     RDKit          3D

 47 49  0  0  0  0  0  0  0  0999 V2000
   14.7630   11.2470   25.1150 C   0  0  0  0  0  0  0  0  0  0  0  0
   13.3640   11.4170   24.5420 C   0  0  0  0  0  0  0  0  0  0  0  0
   13.0530   12.8850   24.2920 C   0  0  0  0  0  0  0  0  0  0  0  0
   12.8540   13.6440   25.2150 O   0  0  0  0  0  0  0  0  0  0  0  0
   13.0230   13.2430   22.8700 N   0  0  0  0  0  0  0  0  0  0  0  0
   12.4940   14.6100   22.6840 C   0  0  0  0  0  0  0  0  0  0  0  0
   11.3290   14.5630   21.7160 C   0  0  0  0  0  0  0  0  0  0  0  0
   10.6260   13.4780   22.0270 N   0  0  0  0  0  0  0  0  0  0  0  0
   10.3660   13.2830   23.3560 C   0  0  0  0  0  0  0  0  0  0  0  0
   10.6370   14.2000   24.3390 O   0  0  0  0  0  0  0  0  0  0  0  0
    9.7160   12.0010   23.7860 C   0  0  0  0  0  0  0  0  0  0  0  0
   10.4300   10.8670   23.1070 C   0  0  0  0  0  0  0  0  0  0  0  0
    9.9060    9.5410   23.3820 C   0  0  0  0  0  0  0  0  0  0  0  0
    8.8200    9.3770   24.2310 C   0  0  0  0  0  0  0  0  0  0  0  0
    8.4240    8.1350   24.4150 F   0  0  0  0  0  0  0  0  0  0  0  0
    8.2050   10.4910   24.8480 C   0  0  0  0  0  0  0  0  0  0  0  0
    7.0430   10.1500   25.7520 C   0  0  0  0  0  0  0  0  0  0  0  0
    6.3560   11.3450   26.4440 C   0  0  0  0  0  0  0  0  0  0  0  0
    6.8680   12.6430   26.1690 C   0  0  0  0  0  0  0  0  0  0  0  0
    7.9480   12.8600   25.3120 C   0  0  0  0  0  0  0  0  0  0  0  0
    8.6280   11.8190   24.6490 C   0  0  0  0  0  0  0  0  0  0  0  0
   11.7400   14.3710   20.2520 C   0  0  0  0  0  0  0  0  0  0  0  0
   12.1760   15.6420   19.6450 C   0  0  0  0  0  0  0  0  0  0  0  0
   11.0850   16.5500   19.7010 O   0  0  0  0  0  0  0  0  0  0  0  0
   10.7170   16.8520   21.0450 C   0  0  0  0  0  0  0  0  0  0  0  0
   10.3470   15.7450   21.7920 C   0  0  0  0  0  0  0  0  0  0  0  0
   15.1640   10.2600   25.3530 H   0  0  0  0  0  0  0  0  0  0  0  0
   15.4010   12.1180   25.2980 H   0  0  0  0  0  0  0  0  0  0  0  0
   12.6930   10.5910   24.3480 H   0  0  0  0  0  0  0  0  0  0  0  0
   12.7680   12.5400   22.1860 H   0  0  0  0  0  0  0  0  0  0  0  0
   13.3690   15.2040   22.4680 H   0  0  0  0  0  0  0  0  0  0  0  0
   12.1380   14.9690   23.6510 H   0  0  0  0  0  0  0  0  0  0  0  0
   10.8410   12.6450   21.4770 H   0  0  0  0  0  0  0  0  0  0  0  0
   11.2710   11.0370   22.4570 H   0  0  0  0  0  0  0  0  0  0  0  0
   10.3700    8.6650   22.9180 H   0  0  0  0  0  0  0  0  0  0  0  0
    6.7000    9.1380   25.9200 H   0  0  0  0  0  0  0  0  0  0  0  0
    5.5130   11.1980   27.1130 H   0  0  0  0  0  0  0  0  0  0  0  0
    6.3990   13.5000   26.6440 H   0  0  0  0  0  0  0  0  0  0  0  0
    8.2600   13.8930   25.1690 H   0  0  0  0  0  0  0  0  0  0  0  0
   12.5140   13.6220   20.1300 H   0  0  0  0  0  0  0  0  0  0  0  0
   10.8700   14.0170   19.6820 H   0  0  0  0  0  0  0  0  0  0  0  0
   13.0420   16.0320   20.1770 H   0  0  0  0  0  0  0  0  0  0  0  0
   12.4590   15.4900   18.5980 H   0  0  0  0  0  0  0  0  0  0  0  0
   11.5900   17.2740   21.5250 H   0  0  0  0  0  0  0  0  0  0  0  0
    9.9540   17.6320   21.0310 H   0  0  0  0  0  0  0  0  0  0  0  0
    9.3310   15.4270   21.5310 H   0  0  0  0  0  0  0  0  0  0  0  0
   10.3020   16.0720   22.8390 H   0  0  0  0  0  0  0  0  0  0  0  0
  1  2  2  0
  2  3  1  0
  3  4  2  0
  3  5  1  0
  5  6  1  0
  6  7  1  0
  7  8  1  0
  8  9  1  0
  9 10  2  0
  9 11  1  0
 11 12  2  0
 12 13  1  0
 13 14  2  0
 14 15  1  0
 14 16  1  0
 16 17  2  0
 17 18  1  0
 18 19  2  0
 19 20  1  0
 20 21  2  0
  7 22  1  0
 22 23  1  0
 23 24  1  0
 24 25  1  0
 25 26  1  0
 26  7  1  0
 21 11  1  0
 21 16  1  0
  1 27  1  0
  1 28  1  0
  2 29  1  0
  5 30  1  0
  6 31  1  0
  6 32  1  0
  8 33  1  0
 12 34  1  0
 13 35  1  0
 17 36  1  0
 18 37  1  0
 19 38  1  0
 20 39  1  0
 22 40  1  0
 22 41  1  0
 23 42  1  0
 23 43  1  0
 25 44  1  0
 25 45  1  0
 26 46  1  0
 26 47  1  0
A    1
 C1 
A    2
 C2 
A    3
 C3 
A    4
 O1 
A    5
 N1 
A    6
 C4 
A    7
 C5 
A    8
 N2 
A    9
 C6 
A   10
 O2 
A   11
 C7 
A   12
 C8 
A   13
 C9 
A   14
 C10
A   15
 F1 
A   16
 C11
A   17
 C12
A   18
 C13
A   19
 C14
A   20
 C15
A   21
 C16
A   22
 C17
A   23
 C18
A   24
 O3 
A   25
 C19
A   26
 C20
A   27
 H1 
A   28
 H2 
A   29
 H3 
A   30
 H4 
A   31
 H5 
A   32
 H6 
A   33
 H7 
A   34
 H8 
A   35
 H9 
A   36
 H10
A   37
 H11
A   38
 H12
A   39
 H13
A   40
 H14
A   41
 H15
A   42
 H16
A   43
 H17
A   44
 H18
A   45
 H19
A   46
 H20
A   47
 H21
M  END
>  <ref_pdb>  (8) 
x0451_0A

>  <ref_mols>  (8) 
x0451_0A,x0554_0A,x0556_0A,x0566_0A,x0310_0A,x0416_0A

>  <original SMILES>  (8) 
C=CC(=O)NCC1(NC(=O)c2ccc(F)c3ccccc23)CCOCC1

>  <rationale>  (8) 
info info set:ROCS-cov2;Warhead 1.0762162003984148Å to Cys110:SG; hbond:S125; hydroph_interaction:A110; 

>  <∆∆G>  (8) 
-4.949469

>  <comRMSD>  (8) 
0.607921

>  <ROCS_TanimotoCombo>  (8) 
0.535

>  <ROCS_ShapeTanimoto>  (8) 
0.388

>  <ROCS_ColorTanimoto>  (8) 
0.147

>  <distance>  (8) 
1.076216

$$$$
Z4899905008
     RDKit          3D

 54 56  0  0  0  0  0  0  0  0999 V2000
   15.7240   10.6720   25.4040 C   0  0  0  0  0  0  0  0  0  0  0  0
   14.3690   11.1780   25.1160 C   0  0  0  0  0  0  0  0  0  0  0  0
   14.0770   12.5160   25.3280 C   0  0  0  0  0  0  0  0  0  0  0  0
   14.6860   13.1380   26.1870 O   0  0  0  0  0  0  0  0  0  0  0  0
   13.0660   12.9430   24.4630 N   0  0  0  0  0  0  0  0  0  0  0  0
   12.9960   14.2220   23.8940 C   0  0  0  0  0  0  0  0  0  0  0  0
   12.4670   14.6100   22.6530 C   0  0  0  0  0  0  0  0  0  0  0  0
   13.1040   15.3960   21.5900 C   0  0  0  0  0  0  0  0  0  0  0  0
   12.3950   15.6360   20.2890 C   0  0  0  0  0  0  0  0  0  0  0  0
   11.0360   15.0980   20.1640 C   0  0  0  0  0  0  0  0  0  0  0  0
   10.5000   14.4200   21.2190 C   0  0  0  0  0  0  0  0  0  0  0  0
   11.2130   14.2090   22.3800 C   0  0  0  0  0  0  0  0  0  0  0  0
   10.5590   13.4770   23.4420 C   0  0  0  0  0  0  0  0  0  0  0  0
   10.1690   14.0790   24.4310 O   0  0  0  0  0  0  0  0  0  0  0  0
   10.5000   12.1900   23.1540 N   0  0  0  0  0  0  0  0  0  0  0  0
    9.5020   11.3740   23.7900 C   0  0  0  0  0  0  0  0  0  0  0  0
    8.4740   12.1440   24.5710 C   0  0  0  0  0  0  0  0  0  0  0  0
    7.5180   11.3760   25.1930 C   0  0  0  0  0  0  0  0  0  0  0  0
    6.4850   12.0200   25.9730 C   0  0  0  0  0  0  0  0  0  0  0  0
    6.2370   13.2040   25.7850 O   0  0  0  0  0  0  0  0  0  0  0  0
    5.9300   11.1320   26.8390 N   0  0  0  0  0  0  0  0  0  0  0  0
    4.8670   11.4370   27.5990 C   0  0  0  0  0  0  0  0  0  0  0  0
    4.1260   12.5040   27.5960 N   0  0  0  0  0  0  0  0  0  0  0  0
    3.1440   12.3790   28.5540 C   0  0  0  0  0  0  0  0  0  0  0  0
    2.1820   13.4980   28.7180 C   0  0  0  0  0  0  0  0  0  0  0  0
    3.1750   11.1950   29.2660 C   0  0  0  0  0  0  0  0  0  0  0  0
    4.4720   10.2140   28.7170 S   0  0  0  0  0  0  0  0  0  0  0  0
    7.5200    9.9860   25.0920 C   0  0  0  0  0  0  0  0  0  0  0  0
    8.4880    9.3210   24.3570 C   0  0  0  0  0  0  0  0  0  0  0  0
    9.4800   10.0310   23.7050 C   0  0  0  0  0  0  0  0  0  0  0  0
   10.4280    9.4630   22.9860 O   0  0  0  0  0  0  0  0  0  0  0  0
   10.0300    8.1500   22.9790 C   0  0  0  0  0  0  0  0  0  0  0  0
   16.4930   11.3440   25.7950 H   0  0  0  0  0  0  0  0  0  0  0  0
   15.9940    9.6230   25.2300 H   0  0  0  0  0  0  0  0  0  0  0  0
   13.5980   10.5240   24.7330 H   0  0  0  0  0  0  0  0  0  0  0  0
   12.4590   12.2390   24.0650 H   0  0  0  0  0  0  0  0  0  0  0  0
   12.4810   14.8480   24.6210 H   0  0  0  0  0  0  0  0  0  0  0  0
   14.0220   14.5210   23.8380 H   0  0  0  0  0  0  0  0  0  0  0  0
   14.0870   15.7960   21.7190 H   0  0  0  0  0  0  0  0  0  0  0  0
   12.8130   16.1550   19.4810 H   0  0  0  0  0  0  0  0  0  0  0  0
   10.5340   15.2850   19.2140 H   0  0  0  0  0  0  0  0  0  0  0  0
    9.4820   14.0660   21.0560 H   0  0  0  0  0  0  0  0  0  0  0  0
   10.7580   11.8980   22.1990 H   0  0  0  0  0  0  0  0  0  0  0  0
    8.4560   13.2260   24.6610 H   0  0  0  0  0  0  0  0  0  0  0  0
    6.1400   10.1440   26.7670 H   0  0  0  0  0  0  0  0  0  0  0  0
    1.6520   13.4270   29.6700 H   0  0  0  0  0  0  0  0  0  0  0  0
    1.4470   13.4780   27.9060 H   0  0  0  0  0  0  0  0  0  0  0  0
    2.6990   14.4630   28.6860 H   0  0  0  0  0  0  0  0  0  0  0  0
    2.5190   10.8680   30.0580 H   0  0  0  0  0  0  0  0  0  0  0  0
    6.7520    9.4060   25.5970 H   0  0  0  0  0  0  0  0  0  0  0  0
    8.4340    8.2390   24.3160 H   0  0  0  0  0  0  0  0  0  0  0  0
    9.4580    7.9890   23.8920 H   0  0  0  0  0  0  0  0  0  0  0  0
    9.3570    7.9400   22.1430 H   0  0  0  0  0  0  0  0  0  0  0  0
   10.8860    7.5090   23.0220 H   0  0  0  0  0  0  0  0  0  0  0  0
  1  2  2  0
  2  3  1  0
  3  4  2  0
  3  5  1  0
  5  6  1  0
  6  7  1  0
  7  8  2  0
  8  9  1  0
  9 10  2  0
 10 11  1  0
 11 12  2  0
 12 13  1  0
 13 14  2  0
 13 15  1  0
 15 16  1  0
 16 17  2  0
 17 18  1  0
 18 19  1  0
 19 20  2  0
 19 21  1  0
 21 22  1  0
 22 23  2  0
 23 24  1  0
 24 25  1  0
 24 26  2  0
 26 27  1  0
 18 28  2  0
 28 29  1  0
 29 30  2  0
 30 31  1  0
 31 32  1  0
 12  7  1  0
 30 16  1  0
 27 22  1  0
  1 33  1  0
  1 34  1  0
  2 35  1  0
  5 36  1  0
  6 37  1  0
  6 38  1  0
  8 39  1  0
  9 40  1  0
 10 41  1  0
 11 42  1  0
 15 43  1  0
 17 44  1  0
 21 45  1  0
 25 46  1  0
 25 47  1  0
 25 48  1  0
 26 49  1  0
 28 50  1  0
 29 51  1  0
 32 52  1  0
 32 53  1  0
 32 54  1  0
A    1
 C1 
A    2
 C2 
A    3
 C3 
A    4
 O1 
A    5
 N1 
A    6
 C4 
A    7
 C5 
A    8
 C6 
A    9
 C7 
A   10
 C8 
A   11
 C9 
A   12
 C10
A   13
 C11
A   14
 O2 
A   15
 N2 
A   16
 C12
A   17
 C13
A   18
 C14
A   19
 C15
A   20
 O3 
A   21
 N3 
A   22
 C16
A   23
 N4 
A   24
 C17
A   25
 C18
A   26
 C19
A   27
 S1 
A   28
 C20
A   29
 C21
A   30
 C22
A   31
 O4 
A   32
 C23
A   33
 H1 
A   34
 H2 
A   35
 H3 
A   36
 H4 
A   37
 H5 
A   38
 H6 
A   39
 H7 
A   40
 H8 
A   41
 H9 
A   42
 H10
A   43
 H11
A   44
 H12
A   45
 H13
A   46
 H14
A   47
 H15
A   48
 H16
A   49
 H17
A   50
 H18
A   51
 H19
A   52
 H20
A   53
 H21
A   54
 H22
M  END
>  <ref_pdb>  (9) 
x0451_0A

>  <ref_mols>  (9) 
x0451_0A,x0554_0A,x0556_0A,x0566_0A,x0310_0A,x0416_0A

>  <original SMILES>  (9) 
C=CC(=O)NCc1ccccc1C(=O)Nc1cc(C(=O)Nc2nc(C)cs2)ccc1OC

>  <rationale>  (9) 
info info set:ROCS-cov2;Warhead 2.774645694498671Å to Cys110:SG; hbond:S125+A110; hydroph_interaction:Y89+Y90+A110+L22; 

>  <∆∆G>  (9) 
-4.80885

>  <comRMSD>  (9) 
0.730348

>  <ROCS_TanimotoCombo>  (9) 
0.552

>  <ROCS_ShapeTanimoto>  (9) 
0.394

>  <ROCS_ColorTanimoto>  (9) 
0.159

>  <distance>  (9) 
2.774646

$$$$
Z4425283730
     RDKit          3D

 54 56  0  0  0  0  0  0  0  0999 V2000
   14.7390   12.0510   25.1220 C   0  0  0  0  0  0  0  0  0  0  0  0
   13.4800   12.8780   24.8700 C   0  0  0  0  0  0  0  0  0  0  0  0
   12.8170   12.9820   23.4860 C   0  0  0  0  0  0  0  0  0  0  0  0
   12.1260   11.9020   23.0450 O   0  0  0  0  0  0  0  0  0  0  0  0
   12.9490   14.1420   22.7820 N   0  0  0  0  0  0  0  0  0  0  0  0
   12.0610   14.1710   21.6170 C   0  0  1  0  0  0  0  0  0  0  0  0
   10.5970   14.2890   21.9580 C   0  0  0  0  0  0  0  0  0  0  0  0
   10.0790   13.1590   22.6070 N   0  0  0  0  0  0  0  0  0  0  0  0
   10.1730   12.9310   23.9310 C   0  0  0  0  0  0  0  0  0  0  0  0
   10.8760   13.5760   24.7010 O   0  0  0  0  0  0  0  0  0  0  0  0
    9.3130   11.8510   24.3820 C   0  0  0  0  0  0  0  0  0  0  0  0
    9.5000   10.4860   24.0780 C   0  0  0  0  0  0  0  0  0  0  0  0
    8.5110    9.7140   24.6580 N   0  0  0  0  0  0  0  0  0  0  0  0
    7.7300   10.5960   25.3070 N   0  0  0  0  0  0  0  0  0  0  0  0
    6.6820   10.2020   25.9880 C   0  0  0  0  0  0  0  0  0  0  0  0
    5.9350   11.1650   26.6030 C   0  0  0  0  0  0  0  0  0  0  0  0
    4.7080   10.8030   27.4180 C   0  0  0  0  0  0  0  0  0  0  0  0
    6.4170   12.5720   26.4280 C   0  0  0  0  0  0  0  0  0  0  0  0
    7.4750   12.9400   25.7560 N   0  0  0  0  0  0  0  0  0  0  0  0
    8.1620   11.9080   25.1690 C   0  0  0  0  0  0  0  0  0  0  0  0
   12.4980   15.0930   20.4520 C   0  0  0  0  0  0  0  0  0  0  0  0
   13.4780   16.0290   20.6030 C   0  0  0  0  0  0  0  0  0  0  0  0
   13.9320   16.8570   19.5710 C   0  0  0  0  0  0  0  0  0  0  0  0
   13.4370   16.7960   18.3220 C   0  0  0  0  0  0  0  0  0  0  0  0
   14.0150   17.6790   17.2240 C   0  0  0  0  0  0  0  0  0  0  0  0
   15.3820   18.2810   17.5900 C   0  0  0  0  0  0  0  0  0  0  0  0
   13.0260   18.6630   16.6280 C   0  0  0  0  0  0  0  0  0  0  0  0
   12.4170   15.8830   18.1480 C   0  0  0  0  0  0  0  0  0  0  0  0
   11.9610   15.0510   19.1860 C   0  0  0  0  0  0  0  0  0  0  0  0
   15.1830   11.9960   26.1230 H   0  0  0  0  0  0  0  0  0  0  0  0
   15.2170   11.5050   24.3090 H   0  0  0  0  0  0  0  0  0  0  0  0
   13.0640   13.3900   25.7420 H   0  0  0  0  0  0  0  0  0  0  0  0
   13.9090   14.4030   22.5610 H   0  0  0  0  0  0  0  0  0  0  0  0
   12.3490   13.2330   21.1870 H   0  0  0  0  0  0  0  0  0  0  0  0
   10.0200   14.4700   21.0410 H   0  0  0  0  0  0  0  0  0  0  0  0
   10.3630   15.0630   22.6880 H   0  0  0  0  0  0  0  0  0  0  0  0
    9.1960   12.8390   22.2340 H   0  0  0  0  0  0  0  0  0  0  0  0
   10.3460   10.1760   23.4580 H   0  0  0  0  0  0  0  0  0  0  0  0
    6.4650    9.1550   26.0400 H   0  0  0  0  0  0  0  0  0  0  0  0
    4.8980   10.8780   28.4930 H   0  0  0  0  0  0  0  0  0  0  0  0
    4.4130    9.7710   27.2000 H   0  0  0  0  0  0  0  0  0  0  0  0
    3.8600   11.4530   27.1730 H   0  0  0  0  0  0  0  0  0  0  0  0
    5.8140   13.3450   26.9190 H   0  0  0  0  0  0  0  0  0  0  0  0
   13.9360   16.1310   21.5710 H   0  0  0  0  0  0  0  0  0  0  0  0
   14.7060   17.5660   19.7770 H   0  0  0  0  0  0  0  0  0  0  0  0
   14.2450   17.0150   16.3910 H   0  0  0  0  0  0  0  0  0  0  0  0
   15.3580   18.8020   18.5540 H   0  0  0  0  0  0  0  0  0  0  0  0
   15.7090   18.9960   16.8270 H   0  0  0  0  0  0  0  0  0  0  0  0
   16.1420   17.4940   17.6520 H   0  0  0  0  0  0  0  0  0  0  0  0
   12.7720   18.3660   15.6080 H   0  0  0  0  0  0  0  0  0  0  0  0
   13.4180   19.6880   16.5930 H   0  0  0  0  0  0  0  0  0  0  0  0
   12.0910   18.6730   17.1970 H   0  0  0  0  0  0  0  0  0  0  0  0
   11.9430   15.7760   17.1800 H   0  0  0  0  0  0  0  0  0  0  0  0
   11.1630   14.3500   18.9560 H   0  0  0  0  0  0  0  0  0  0  0  0
  1  2  2  0
  2  3  1  0
  3  4  2  0
  3  5  1  0
  5  6  1  0
  6  7  1  0
  7  8  1  0
  8  9  1  0
  9 10  2  0
  9 11  1  0
 11 12  1  0
 12 13  2  0
 13 14  1  0
 14 15  1  0
 15 16  2  0
 16 17  1  0
 16 18  1  0
 18 19  2  0
 19 20  1  0
  6 21  1  0
 21 22  2  0
 22 23  1  0
 23 24  2  0
 24 25  1  0
 25 26  1  0
 25 27  1  0
 24 28  1  0
 28 29  2  0
 20 11  2  0
 29 21  1  0
 20 14  1  0
  1 30  1  0
  1 31  1  0
  2 32  1  0
  5 33  1  0
  6 34  1  6
  7 35  1  0
  7 36  1  0
  8 37  1  0
 12 38  1  0
 15 39  1  0
 17 40  1  0
 17 41  1  0
 17 42  1  0
 18 43  1  0
 22 44  1  0
 23 45  1  0
 25 46  1  0
 26 47  1  0
 26 48  1  0
 26 49  1  0
 27 50  1  0
 27 51  1  0
 27 52  1  0
 28 53  1  0
 29 54  1  0
A    1
 C1 
A    2
 C2 
A    3
 C3 
A    4
 O1 
A    5
 N1 
A    6
 C4 
A    7
 C5 
A    8
 N2 
A    9
 C6 
A   10
 O2 
A   11
 C7 
A   12
 C8 
A   13
 N3 
A   14
 N4 
A   15
 C9 
A   16
 C10
A   17
 C11
A   18
 C12
A   19
 N5 
A   20
 C13
A   21
 C14
A   22
 C15
A   23
 C16
A   24
 C17
A   25
 C18
A   26
 C19
A   27
 C20
A   28
 C21
A   29
 C22
A   30
 H1 
A   31
 H2 
A   32
 H3 
A   33
 H4 
A   34
 H5 
A   35
 H6 
A   36
 H7 
A   37
 H8 
A   38
 H9 
A   39
 H10
A   40
 H11
A   41
 H12
A   42
 H13
A   43
 H14
A   44
 H15
A   45
 H16
A   46
 H17
A   47
 H18
A   48
 H19
A   49
 H20
A   50
 H21
A   51
 H22
A   52
 H23
A   53
 H24
A   54
 H25
M  END
>  <ref_pdb>  (10) 
x0451_0A

>  <ref_mols>  (10) 
x0451_0A,x0554_0A,x0556_0A,x0566_0A,x0310_0A,x0416_0A

>  <original SMILES>  (10) 
C=CC(=O)N[C@@H](CNC(=O)c1cnn2cc(C)cnc12)c1ccc(C(C)C)cc1

>  <rationale>  (10) 
info info set:ROCS-cov2;Warhead 2.212289533492396Å to Cys110:SG; hbond:T126; hydroph_interaction:Y89+Y90+D39+H21; 

>  <∆∆G>  (10) 
-4.613296

>  <comRMSD>  (10) 
1.018496

>  <ROCS_TanimotoCombo>  (10) 
0.533

>  <ROCS_ShapeTanimoto>  (10) 
0.362

>  <ROCS_ColorTanimoto>  (10) 
0.172

>  <distance>  (10) 
2.21229

$$$$
Z4408138101
     RDKit          3D

 49 51  0  0  0  0  0  0  0  0999 V2000
   12.8490   12.6310   26.0070 C   0  0  0  0  0  0  0  0  0  0  0  0
   13.0890   12.3180   24.5370 C   0  0  0  0  0  0  0  0  0  0  0  0
   12.7060   13.5380   23.7200 C   0  0  0  0  0  0  0  0  0  0  0  0
   13.4300   14.4520   23.5890 O   0  0  0  0  0  0  0  0  0  0  0  0
   11.5200   13.5170   23.1270 N   0  0  0  0  0  0  0  0  0  0  0  0
   11.1200   12.2960   22.7060 C   0  0  0  0  0  0  0  0  0  0  0  0
   10.1520   11.6790   23.5300 C   0  0  0  0  0  0  0  0  0  0  0  0
    9.8450   10.3540   23.2790 C   0  0  0  0  0  0  0  0  0  0  0  0
    8.9150    9.6850   24.0310 C   0  0  0  0  0  0  0  0  0  0  0  0
    8.6710    8.0420   23.5710 Cl  0  0  0  0  0  0  0  0  0  0  0  0
    8.2690   10.3840   25.0840 C   0  0  0  0  0  0  0  0  0  0  0  0
    8.6070   11.7230   25.3010 C   0  0  0  0  0  0  0  0  0  0  0  0
    9.5350   12.3480   24.5260 C   0  0  0  0  0  0  0  0  0  0  0  0
    8.1570   12.4620   26.1480 O   0  0  0  0  0  0  0  0  0  0  0  0
    6.7720   12.6250   25.9890 C   0  0  0  0  0  0  0  0  0  0  0  0
    6.1170   11.6320   26.6990 C   0  0  0  0  0  0  0  0  0  0  0  0
    6.0760   10.3210   26.1730 C   0  0  0  0  0  0  0  0  0  0  0  0
    7.3480    9.7140   25.8570 O   0  0  0  0  0  0  0  0  0  0  0  0
   11.1760   14.3840   21.9830 C   0  0  2  0  0  0  0  0  0  0  0  0
   12.3020   14.5980   20.9820 C   0  0  0  0  0  0  0  0  0  0  0  0
   12.0780   15.0090   19.5120 C   0  0  0  0  0  0  0  0  0  0  0  0
   10.9470   15.9740   19.1100 C   0  0  0  0  0  0  0  0  0  0  0  0
   10.0940   16.6490   20.1740 C   0  0  0  0  0  0  0  0  0  0  0  0
   10.6550   16.6250   21.4850 N   0  0  0  0  0  0  0  0  0  0  0  0
   10.4880   15.6350   22.3800 C   0  0  0  0  0  0  0  0  0  0  0  0
    9.8440   15.7770   23.4060 O   0  0  0  0  0  0  0  0  0  0  0  0
   13.0680   11.8880   26.7760 H   0  0  0  0  0  0  0  0  0  0  0  0
   12.4550   13.6040   26.3240 H   0  0  0  0  0  0  0  0  0  0  0  0
   13.4710   11.3930   24.1410 H   0  0  0  0  0  0  0  0  0  0  0  0
   11.9780   11.6690   22.4840 H   0  0  0  0  0  0  0  0  0  0  0  0
   10.6480   12.6680   21.8350 H   0  0  0  0  0  0  0  0  0  0  0  0
   10.3990    9.9030   22.4470 H   0  0  0  0  0  0  0  0  0  0  0  0
    9.7220   13.3950   24.7810 H   0  0  0  0  0  0  0  0  0  0  0  0
    6.5600   12.5150   24.9260 H   0  0  0  0  0  0  0  0  0  0  0  0
    6.4510   13.6360   26.2670 H   0  0  0  0  0  0  0  0  0  0  0  0
    5.1350   11.9180   27.0700 H   0  0  0  0  0  0  0  0  0  0  0  0
    6.6900   11.5250   27.6210 H   0  0  0  0  0  0  0  0  0  0  0  0
    5.5920    9.6830   26.9250 H   0  0  0  0  0  0  0  0  0  0  0  0
    5.4710   10.1470   25.3190 H   0  0  0  0  0  0  0  0  0  0  0  0
   10.4100   13.8360   21.4190 H   0  0  0  0  0  0  0  0  0  0  0  0
   12.7170   13.6090   20.9470 H   0  0  0  0  0  0  0  0  0  0  0  0
   13.0920   15.2370   21.4100 H   0  0  0  0  0  0  0  0  0  0  0  0
   13.0550   15.2540   19.1140 H   0  0  0  0  0  0  0  0  0  0  0  0
   11.8410   14.0770   18.9830 H   0  0  0  0  0  0  0  0  0  0  0  0
   10.2700   15.3930   18.4720 H   0  0  0  0  0  0  0  0  0  0  0  0
   11.3450   16.7580   18.4400 H   0  0  0  0  0  0  0  0  0  0  0  0
    9.1180   16.1630   20.2360 H   0  0  0  0  0  0  0  0  0  0  0  0
    9.8990   17.6900   19.9040 H   0  0  0  0  0  0  0  0  0  0  0  0
   10.9820   17.4660   21.9080 H   0  0  0  0  0  0  0  0  0  0  0  0
  1  2  2  0
  2  3  1  0
  3  4  2  0
  3  5  1  0
  5  6  1  0
  6  7  1  0
  7  8  2  0
  8  9  1  0
  9 10  1  0
  9 11  2  0
 11 12  1  0
 12 13  2  0
 12 14  1  0
 14 15  1  0
 15 16  1  0
 16 17  1  0
 17 18  1  0
  5 19  1  0
 19 20  1  0
 20 21  1  0
 21 22  1  0
 22 23  1  0
 23 24  1  0
 24 25  1  0
 25 26  2  0
 13  7  1  0
 25 19  1  0
 18 11  1  0
  1 27  1  0
  1 28  1  0
  2 29  1  0
  6 30  1  0
  6 31  1  0
  8 32  1  0
 13 33  1  0
 15 34  1  0
 15 35  1  0
 16 36  1  0
 16 37  1  0
 17 38  1  0
 17 39  1  0
 19 40  1  6
 20 41  1  0
 20 42  1  0
 21 43  1  0
 21 44  1  0
 22 45  1  0
 22 46  1  0
 23 47  1  0
 23 48  1  0
 24 49  1  0
A    1
 C1 
A    2
 C2 
A    3
 C3 
A    4
 O1 
A    5
 N1 
A    6
 C4 
A    7
 C5 
A    8
 C6 
A    9
 C7 
A   10
CL1 
A   11
 C8 
A   12
 C9 
A   13
 C10
A   14
 O2 
A   15
 C11
A   16
 C12
A   17
 C13
A   18
 O3 
A   19
 C14
A   20
 C15
A   21
 C16
A   22
 C17
A   23
 C18
A   24
 N2 
A   25
 C19
A   26
 O4 
A   27
 H1 
A   28
 H2 
A   29
 H3 
A   30
 H4 
A   31
 H5 
A   32
 H6 
A   33
 H7 
A   34
 H8 
A   35
 H9 
A   36
 H10
A   37
 H11
A   38
 H12
A   39
 H13
A   40
 H14
A   41
 H15
A   42
 H16
A   43
 H17
A   44
 H18
A   45
 H19
A   46
 H20
A   47
 H21
A   48
 H22
A   49
 H23
M  END
>  <ref_pdb>  (11) 
x0451_0A

>  <ref_mols>  (11) 
x0451_0A,x0554_0A,x0556_0A,x0566_0A,x0310_0A,x0416_0A

>  <original SMILES>  (11) 
C=CC(=O)N(Cc1cc(Cl)c2c(c1)OCCCO2)[C@@H]1CCCCNC1=O

>  <rationale>  (11) 
info info set:ROCS-cov2;Warhead 2.751750659125933Å to Cys110:SG; hbond:S87; hydroph_interaction:Y89+Y90+A110; 

>  <∆∆G>  (11) 
-4.489216

>  <comRMSD>  (11) 
0.776426

>  <ROCS_TanimotoCombo>  (11) 
0.525

>  <ROCS_ShapeTanimoto>  (11) 
0.38

>  <ROCS_ColorTanimoto>  (11) 
0.145

>  <distance>  (11) 
2.751751

$$$$
Z57042000
     RDKit          3D

 35 37  0  0  0  0  0  0  0  0999 V2000
   13.7830   13.8930   24.1310 O   0  0  0  0  0  0  0  0  0  0  0  0
   12.6780   13.4510   24.0390 C   0  0  0  0  0  0  0  0  0  0  0  0
   12.5060   12.1340   24.7030 C   0  0  0  0  0  0  0  0  0  0  0  0
   14.0230   11.6930   25.5140 Cl  0  0  0  0  0  0  0  0  0  0  0  0
   11.6360   14.0660   23.3800 N   0  0  0  0  0  0  0  0  0  0  0  0
   11.6640   15.3200   22.7720 C   0  0  0  0  0  0  0  0  0  0  0  0
   10.8870   15.3040   21.6430 C   0  0  0  0  0  0  0  0  0  0  0  0
   10.3890   14.0330   21.4180 C   0  0  0  0  0  0  0  0  0  0  0  0
   10.9220   13.1890   22.4630 C   0  0  2  0  0  0  0  0  0  0  0  0
    9.9940   12.2690   23.2770 C   0  0  0  0  0  0  0  0  0  0  0  0
   10.1790   10.7740   23.3430 C   0  0  0  0  0  0  0  0  0  0  0  0
    9.2960    9.7800   24.1200 C   0  0  0  0  0  0  0  0  0  0  0  0
    8.1050   10.4730   24.8970 C   0  0  0  0  0  0  0  0  0  0  0  0
    8.0810   12.0060   24.7090 C   0  0  0  0  0  0  0  0  0  0  0  0
    8.9480   12.7830   23.9700 C   0  0  0  0  0  0  0  0  0  0  0  0
    7.1010   12.7170   25.3310 O   0  0  0  0  0  0  0  0  0  0  0  0
    6.6450   12.0320   26.5010 C   0  0  0  0  0  0  0  0  0  0  0  0
    6.2050   10.5850   26.2520 C   0  0  0  0  0  0  0  0  0  0  0  0
    7.2150    9.7540   25.6420 O   0  0  0  0  0  0  0  0  0  0  0  0
   12.2740   11.3740   23.9560 H   0  0  0  0  0  0  0  0  0  0  0  0
   11.7150   12.1990   25.4520 H   0  0  0  0  0  0  0  0  0  0  0  0
   12.6850   15.5700   22.4860 H   0  0  0  0  0  0  0  0  0  0  0  0
   11.3570   16.0180   23.5470 H   0  0  0  0  0  0  0  0  0  0  0  0
   11.3740   15.7680   20.7840 H   0  0  0  0  0  0  0  0  0  0  0  0
   10.0470   15.9740   21.8440 H   0  0  0  0  0  0  0  0  0  0  0  0
    9.2950   14.0380   21.4230 H   0  0  0  0  0  0  0  0  0  0  0  0
   10.7050   13.7280   20.4160 H   0  0  0  0  0  0  0  0  0  0  0  0
   11.7580   12.6090   22.0910 H   0  0  0  0  0  0  0  0  0  0  0  0
   11.0230   10.3500   22.7800 H   0  0  0  0  0  0  0  0  0  0  0  0
    9.4660    8.6970   24.1400 H   0  0  0  0  0  0  0  0  0  0  0  0
    8.7110   13.8530   23.9960 H   0  0  0  0  0  0  0  0  0  0  0  0
    5.8000   12.6050   26.8960 H   0  0  0  0  0  0  0  0  0  0  0  0
    7.4450   12.0700   27.2450 H   0  0  0  0  0  0  0  0  0  0  0  0
    5.9120   10.1040   27.1920 H   0  0  0  0  0  0  0  0  0  0  0  0
    5.3370   10.5700   25.6040 H   0  0  0  0  0  0  0  0  0  0  0  0
  1  2  2  0
  2  3  1  0
  3  4  1  0
  2  5  1  0
  5  6  1  0
  6  7  1  0
  7  8  1  0
  8  9  1  0
  9 10  1  0
 10 11  2  0
 11 12  1  0
 12 13  2  0
 13 14  1  0
 14 15  2  0
 14 16  1  0
 16 17  1  0
 17 18  1  0
 18 19  1  0
  9  5  1  0
 15 10  1  0
 19 13  1  0
  3 20  1  0
  3 21  1  0
  6 22  1  0
  6 23  1  0
  7 24  1  0
  7 25  1  0
  8 26  1  0
  8 27  1  0
  9 28  1  6
 11 29  1  0
 12 30  1  0
 15 31  1  0
 17 32  1  0
 17 33  1  0
 18 34  1  0
 18 35  1  0
A    1
 O1 
A    2
 C1 
A    3
 C2 
A    4
CL1 
A    5
 N1 
A    6
 C3 
A    7
 C4 
A    8
 C5 
A    9
 C6 
A   10
 C7 
A   11
 C8 
A   12
 C9 
A   13
 C10
A   14
 C11
A   15
 C12
A   16
 O2 
A   17
 C13
A   18
 C14
A   19
 O3 
A   20
 H1 
A   21
 H2 
A   22
 H3 
A   23
 H4 
A   24
 H5 
A   25
 H6 
A   26
 H7 
A   27
 H8 
A   28
 H9 
A   29
 H10
A   30
 H11
A   31
 H12
A   32
 H13
A   33
 H14
A   34
 H15
A   35
 H16
M  END
>  <ref_pdb>  (12) 
x0451_0A

>  <ref_mols>  (12) 
x0451_0A,x0554_0A,x0556_0A,x0566_0A,x0310_0A,x0416_0A

>  <original SMILES>  (12) 
O=C(CCl)N1CCC[C@@H]1c1ccc2c(c1)OCCO2

>  <rationale>  (12) 
info info set:ROCS-electro;Warhead 2.2838167921267236Å to Cys110:SG; 

>  <∆∆G>  (12) 
-4.365345

>  <comRMSD>  (12) 
0.516267

>  <ROCS_TanimotoCombo>  (12) 
0.44

>  <ROCS_ShapeTanimoto>  (12) 
0.328

>  <ROCS_ColorTanimoto>  (12) 
0.112

>  <distance>  (12) 
2.283817

$$$$
Z1938145906
     RDKit          3D

 36 38  0  0  0  0  0  0  0  0999 V2000
   13.5520   11.1730   24.7360 C   0  0  0  0  0  0  0  0  0  0  0  0
   12.2780   11.9380   24.4730 C   0  0  0  0  0  0  0  0  0  0  0  0
   12.4460   13.3010   23.8240 C   0  0  0  0  0  0  0  0  0  0  0  0
   13.5030   13.8140   23.9110 O   0  0  0  0  0  0  0  0  0  0  0  0
   11.4250   13.8820   23.1520 N   0  0  0  0  0  0  0  0  0  0  0  0
   11.6450   14.4500   21.8290 C   0  0  0  0  0  0  0  0  0  0  0  0
   10.3470   14.6230   21.3460 C   0  0  0  0  0  0  0  0  0  0  0  0
    9.4200   14.4490   22.3830 C   0  0  0  0  0  0  0  0  0  0  0  0
   10.0160   13.8320   23.4830 C   0  0  1  0  0  0  0  0  0  0  0  0
    9.5090   12.4160   23.7820 C   0  0  0  0  0  0  0  0  0  0  0  0
   10.3410   11.3070   23.1780 C   0  0  0  0  0  0  0  0  0  0  0  0
    9.9850    9.9630   23.3820 C   0  0  0  0  0  0  0  0  0  0  0  0
    8.8670    9.6170   24.1460 C   0  0  0  0  0  0  0  0  0  0  0  0
    8.0620   10.6130   24.7310 C   0  0  0  0  0  0  0  0  0  0  0  0
    8.4020   12.0760   24.5380 C   0  0  0  0  0  0  0  0  0  0  0  0
    7.6410   13.0480   25.1040 O   0  0  0  0  0  0  0  0  0  0  0  0
    7.1680   12.5490   26.3550 C   0  0  0  0  0  0  0  0  0  0  0  0
    6.3320   11.2730   26.2160 C   0  0  0  0  0  0  0  0  0  0  0  0
    6.9740   10.2040   25.4740 O   0  0  0  0  0  0  0  0  0  0  0  0
   14.5310   11.5970   24.4810 H   0  0  0  0  0  0  0  0  0  0  0  0
   13.5410   10.1850   25.1670 H   0  0  0  0  0  0  0  0  0  0  0  0
   11.3120   11.5290   24.7240 H   0  0  0  0  0  0  0  0  0  0  0  0
   12.2970   15.3200   21.8630 H   0  0  0  0  0  0  0  0  0  0  0  0
   12.1250   13.6800   21.2140 H   0  0  0  0  0  0  0  0  0  0  0  0
   10.1420   13.9070   20.5630 H   0  0  0  0  0  0  0  0  0  0  0  0
   10.2340   15.6000   20.8820 H   0  0  0  0  0  0  0  0  0  0  0  0
    8.8630   15.3520   22.6310 H   0  0  0  0  0  0  0  0  0  0  0  0
    8.7270   13.6890   22.0280 H   0  0  0  0  0  0  0  0  0  0  0  0
    9.8990   14.4550   24.3780 H   0  0  0  0  0  0  0  0  0  0  0  0
   11.2190   11.5380   22.5850 H   0  0  0  0  0  0  0  0  0  0  0  0
   10.5930    9.1760   22.9380 H   0  0  0  0  0  0  0  0  0  0  0  0
    8.6270    8.5660   24.2860 H   0  0  0  0  0  0  0  0  0  0  0  0
    6.6000   13.3490   26.8470 H   0  0  0  0  0  0  0  0  0  0  0  0
    8.0510   12.3380   26.9590 H   0  0  0  0  0  0  0  0  0  0  0  0
    6.0790   10.8740   27.2080 H   0  0  0  0  0  0  0  0  0  0  0  0
    5.3890   11.5070   25.7230 H   0  0  0  0  0  0  0  0  0  0  0  0
  1  2  2  0
  2  3  1  0
  3  4  2  0
  3  5  1  0
  5  6  1  0
  6  7  1  0
  7  8  1  0
  8  9  1  0
  9 10  1  0
 10 11  2  0
 11 12  1  0
 12 13  2  0
 13 14  1  0
 14 15  2  0
 15 16  1  0
 16 17  1  0
 17 18  1  0
 18 19  1  0
  9  5  1  0
 15 10  1  0
 19 14  1  0
  1 20  1  0
  1 21  1  0
  2 22  1  0
  6 23  1  0
  6 24  1  0
  7 25  1  0
  7 26  1  0
  8 27  1  0
  8 28  1  0
  9 29  1  1
 11 30  1  0
 12 31  1  0
 13 32  1  0
 17 33  1  0
 17 34  1  0
 18 35  1  0
 18 36  1  0
A    1
 C1 
A    2
 C2 
A    3
 C3 
A    4
 O1 
A    5
 N1 
A    6
 C4 
A    7
 C5 
A    8
 C6 
A    9
 C7 
A   10
 C8 
A   11
 C9 
A   12
 C10
A   13
 C11
A   14
 C12
A   15
 C13
A   16
 O2 
A   17
 C14
A   18
 C15
A   19
 O3 
A   20
 H1 
A   21
 H2 
A   22
 H3 
A   23
 H4 
A   24
 H5 
A   25
 H6 
A   26
 H7 
A   27
 H8 
A   28
 H9 
A   29
 H10
A   30
 H11
A   31
 H12
A   32
 H13
A   33
 H14
A   34
 H15
A   35
 H16
A   36
 H17
M  END
>  <ref_pdb>  (13) 
x0451_0A

>  <ref_mols>  (13) 
x0451_0A,x0554_0A,x0556_0A,x0566_0A,x0310_0A,x0416_0A

>  <original SMILES>  (13) 
C=CC(=O)N1CCC[C@H]1c1cccc2c1OCCO2

>  <rationale>  (13) 
info info set:ROCS-electro;Warhead 1.6444309532479613Å to Cys110:SG; hydroph_interaction:A110; 

>  <∆∆G>  (13) 
-4.042089

>  <comRMSD>  (13) 
0.411028

>  <ROCS_TanimotoCombo>  (13) 
0.451

>  <ROCS_ShapeTanimoto>  (13) 
0.333

>  <ROCS_ColorTanimoto>  (13) 
0.119

>  <distance>  (13) 
1.644431

$$$$
Z3672058033
     RDKit          3D

 56 59  0  0  0  0  0  0  0  0999 V2000
   15.4940   10.3650   25.2550 C   0  0  0  0  0  0  0  0  0  0  0  0
   15.8800   11.6240   25.9170 C   0  0  0  0  0  0  0  0  0  0  0  0
   14.8810   12.5320   26.2330 C   0  0  0  0  0  0  0  0  0  0  0  0
   15.1090   13.3370   27.1240 O   0  0  0  0  0  0  0  0  0  0  0  0
   13.6750   12.4670   25.5160 N   0  0  0  0  0  0  0  0  0  0  0  0
   13.7170   11.9860   24.1290 C   0  0  0  0  0  0  0  0  0  0  0  0
   12.7100   12.4470   23.2190 C   0  0  0  0  0  0  0  0  0  0  0  0
   12.1750   13.7380   23.3280 C   0  0  0  0  0  0  0  0  0  0  0  0
   10.9010   13.7370   23.5630 C   0  0  0  0  0  0  0  0  0  0  0  0
   10.4200   13.8750   24.6810 O   0  0  0  0  0  0  0  0  0  0  0  0
   10.1380   13.5930   22.4760 N   0  0  0  0  0  0  0  0  0  0  0  0
    8.9910   13.4280   22.8820 C   0  0  0  0  0  0  0  0  0  0  0  0
    8.9220   12.0720   23.5730 C   0  0  0  0  0  0  0  0  0  0  0  0
    9.9690   11.0390   23.0930 C   0  0  0  0  0  0  0  0  0  0  0  0
    9.8760    9.6820   23.7210 C   0  0  0  0  0  0  0  0  0  0  0  0
    8.8230    9.4210   24.7620 C   0  0  0  0  0  0  0  0  0  0  0  0
    7.8430   10.5140   25.2190 C   0  0  0  0  0  0  0  0  0  0  0  0
    7.9260   11.8700   24.5740 C   0  0  0  0  0  0  0  0  0  0  0  0
    7.1230   12.9050   24.8890 O   0  0  0  0  0  0  0  0  0  0  0  0
    6.7830   12.7400   26.2550 C   0  0  0  0  0  0  0  0  0  0  0  0
    6.1000   11.3900   26.4810 C   0  0  0  0  0  0  0  0  0  0  0  0
    6.9260   10.2370   26.1880 O   0  0  0  0  0  0  0  0  0  0  0  0
   11.9300   14.6980   22.1100 C   0  0  0  0  0  0  0  0  0  0  0  0
   11.2890   15.9550   22.2410 C   0  0  0  0  0  0  0  0  0  0  0  0
   11.0310   16.7420   21.1120 C   0  0  0  0  0  0  0  0  0  0  0  0
   11.4090   16.3200   19.8550 C   0  0  0  0  0  0  0  0  0  0  0  0
   12.0490   15.1270   19.7050 C   0  0  0  0  0  0  0  0  0  0  0  0
   12.2860   14.3360   20.8180 C   0  0  0  0  0  0  0  0  0  0  0  0
   12.7130   14.3530   24.5500 C   0  0  0  0  0  0  0  0  0  0  0  0
   12.6850   13.4620   25.7590 C   0  0  0  0  0  0  0  0  0  0  0  0
   16.2560    9.6220   24.9880 H   0  0  0  0  0  0  0  0  0  0  0  0
   14.4450   10.1680   25.0350 H   0  0  0  0  0  0  0  0  0  0  0  0
   16.9110   11.8440   26.1530 H   0  0  0  0  0  0  0  0  0  0  0  0
   13.5140   10.9240   24.2690 H   0  0  0  0  0  0  0  0  0  0  0  0
   14.7500   12.0240   23.8170 H   0  0  0  0  0  0  0  0  0  0  0  0
   11.9240   11.7120   23.1080 H   0  0  0  0  0  0  0  0  0  0  0  0
   13.1510   12.4010   22.2300 H   0  0  0  0  0  0  0  0  0  0  0  0
   10.4780   12.9590   21.7340 H   0  0  0  0  0  0  0  0  0  0  0  0
    8.7190   14.2210   23.5850 H   0  0  0  0  0  0  0  0  0  0  0  0
    8.3000   13.4890   22.0430 H   0  0  0  0  0  0  0  0  0  0  0  0
   10.7150   11.2600   22.3460 H   0  0  0  0  0  0  0  0  0  0  0  0
   10.5520    8.8590   23.4490 H   0  0  0  0  0  0  0  0  0  0  0  0
    8.7440    8.4410   25.2140 H   0  0  0  0  0  0  0  0  0  0  0  0
    6.1060   13.5550   26.5230 H   0  0  0  0  0  0  0  0  0  0  0  0
    7.6940   12.8410   26.8610 H   0  0  0  0  0  0  0  0  0  0  0  0
    5.7620   11.2960   27.5180 H   0  0  0  0  0  0  0  0  0  0  0  0
    5.2120   11.3160   25.8500 H   0  0  0  0  0  0  0  0  0  0  0  0
   10.9690   16.3280   23.2070 H   0  0  0  0  0  0  0  0  0  0  0  0
   10.5270   17.6930   21.1960 H   0  0  0  0  0  0  0  0  0  0  0  0
   11.2010   16.9370   18.9840 H   0  0  0  0  0  0  0  0  0  0  0  0
   12.3590   14.7850   18.7210 H   0  0  0  0  0  0  0  0  0  0  0  0
   12.7590   13.3880   20.6590 H   0  0  0  0  0  0  0  0  0  0  0  0
   13.7440   14.5200   24.3080 H   0  0  0  0  0  0  0  0  0  0  0  0
   12.1970   15.2760   24.8090 H   0  0  0  0  0  0  0  0  0  0  0  0
   11.7150   12.9600   25.8720 H   0  0  0  0  0  0  0  0  0  0  0  0
   12.8710   14.0310   26.6740 H   0  0  0  0  0  0  0  0  0  0  0  0
  1  2  2  0
  2  3  1  0
  3  4  2  0
  3  5  1  0
  5  6  1  0
  6  7  1  0
  7  8  1  0
  8  9  1  0
  9 10  2  0
  9 11  1  0
 11 12  1  0
 12 13  1  0
 13 14  2  0
 14 15  1  0
 15 16  2  0
 16 17  1  0
 17 18  2  0
 18 19  1  0
 19 20  1  0
 20 21  1  0
 21 22  1  0
  8 23  1  0
 23 24  2  0
 24 25  1  0
 25 26  2  0
 26 27  1  0
 27 28  2  0
  8 29  1  0
 29 30  1  0
 30  5  1  0
 18 13  1  0
 28 23  1  0
 22 17  1  0
  1 31  1  0
  1 32  1  0
  2 33  1  0
  6 34  1  0
  6 35  1  0
  7 36  1  0
  7 37  1  0
 11 38  1  0
 12 39  1  0
 12 40  1  0
 14 41  1  0
 15 42  1  0
 16 43  1  0
 20 44  1  0
 20 45  1  0
 21 46  1  0
 21 47  1  0
 24 48  1  0
 25 49  1  0
 26 50  1  0
 27 51  1  0
 28 52  1  0
 29 53  1  0
 29 54  1  0
 30 55  1  0
 30 56  1  0
A    1
 C1 
A    2
 C2 
A    3
 C3 
A    4
 O1 
A    5
 N1 
A    6
 C4 
A    7
 C5 
A    8
 C6 
A    9
 C7 
A   10
 O2 
A   11
 N2 
A   12
 C8 
A   13
 C9 
A   14
 C10
A   15
 C11
A   16
 C12
A   17
 C13
A   18
 C14
A   19
 O3 
A   20
 C15
A   21
 C16
A   22
 O4 
A   23
 C17
A   24
 C18
A   25
 C19
A   26
 C20
A   27
 C21
A   28
 C22
A   29
 C23
A   30
 C24
A   31
 H1 
A   32
 H2 
A   33
 H3 
A   34
 H4 
A   35
 H5 
A   36
 H6 
A   37
 H7 
A   38
 H8 
A   39
 H9 
A   40
 H10
A   41
 H11
A   42
 H12
A   43
 H13
A   44
 H14
A   45
 H15
A   46
 H16
A   47
 H17
A   48
 H18
A   49
 H19
A   50
 H20
A   51
 H21
A   52
 H22
A   53
 H23
A   54
 H24
A   55
 H25
A   56
 H26
M  END
>  <ref_pdb>  (14) 
x0451_0A

>  <ref_mols>  (14) 
x0451_0A,x0554_0A,x0556_0A,x0566_0A,x0310_0A,x0416_0A

>  <original SMILES>  (14) 
C=CC(=O)N1CCC(C(=O)NCc2cccc3c2OCCO3)(c2ccccc2)CC1

>  <rationale>  (14) 
info info set:ROCS-cov2;Warhead 2.4533725624128127Å to Cys110:SG; hbond:S125; hydroph_interaction:Y89+Y90+L22+T126; pistack:H21; 

>  <∆∆G>  (14) 
-3.674123

>  <comRMSD>  (14) 
1.077072

>  <ROCS_TanimotoCombo>  (14) 
0.531

>  <ROCS_ShapeTanimoto>  (14) 
0.358

>  <ROCS_ColorTanimoto>  (14) 
0.173

>  <distance>  (14) 
2.453373

$$$$
Z44325918
     RDKit          3D

 56 60  0  0  0  0  0  0  0  0999 V2000
   14.5340   11.8760   24.3030 N   0  0  0  0  0  0  0  0  0  0  0  0
   13.4040   12.1060   24.2270 C   0  0  0  0  0  0  0  0  0  0  0  0
   11.9460   12.4190   24.3580 C   0  0  0  0  0  0  0  0  0  0  0  0
   11.1200   11.4640   24.9360 C   0  0  0  0  0  0  0  0  0  0  0  0
    9.7530   11.6450   25.1850 C   0  0  0  0  0  0  0  0  0  0  0  0
    9.1050   12.9710   26.0750 S   0  0  0  0  0  0  0  0  0  0  0  0
    7.4910   12.3550   25.8840 C   0  0  0  0  0  0  0  0  0  0  0  0
    6.3110   12.8930   26.3680 N   0  0  0  0  0  0  0  0  0  0  0  0
    6.2530   13.6810   27.4830 C   0  0  0  0  0  0  0  0  0  0  0  0
    5.5410   13.0910   28.4980 C   0  0  0  0  0  0  0  0  0  0  0  0
    4.3140   12.4940   28.0780 O   0  0  0  0  0  0  0  0  0  0  0  0
    4.5000   11.6220   27.2570 C   0  0  0  0  0  0  0  0  0  0  0  0
    5.0930   12.1320   26.1050 C   0  0  0  0  0  0  0  0  0  0  0  0
    7.4640   11.2000   25.1670 N   0  0  0  0  0  0  0  0  0  0  0  0
    8.7320   10.8800   24.8260 C   0  0  0  0  0  0  0  0  0  0  0  0
    8.9200    9.7060   24.0610 C   0  0  0  0  0  0  0  0  0  0  0  0
    8.3880    8.5780   24.4700 C   0  0  0  0  0  0  0  0  0  0  0  0
    8.4740    7.3920   23.7330 C   0  0  0  0  0  0  0  0  0  0  0  0
    9.0960    7.4700   22.6200 C   0  0  0  0  0  0  0  0  0  0  0  0
    9.6880    8.6840   22.2310 C   0  0  0  0  0  0  0  0  0  0  0  0
    9.6110    9.7860   22.9420 C   0  0  0  0  0  0  0  0  0  0  0  0
   11.3190   13.7000   23.9360 C   0  0  0  0  0  0  0  0  0  0  0  0
   10.9870   14.5160   24.7830 O   0  0  0  0  0  0  0  0  0  0  0  0
   11.1490   13.8280   22.5820 N   0  0  0  0  0  0  0  0  0  0  0  0
   10.5010   14.8650   21.8790 C   0  0  0  0  0  0  0  0  0  0  0  0
    9.3570   15.5370   22.2790 C   0  0  0  0  0  0  0  0  0  0  0  0
    8.8150   16.5440   21.4740 C   0  0  0  0  0  0  0  0  0  0  0  0
    9.4100   16.8770   20.2650 C   0  0  0  0  0  0  0  0  0  0  0  0
   10.5400   16.2100   19.8530 C   0  0  0  0  0  0  0  0  0  0  0  0
   11.1250   16.5220   18.6380 C   0  0  0  0  0  0  0  0  0  0  0  0
   12.2570   15.8510   18.2540 C   0  0  0  0  0  0  0  0  0  0  0  0
   12.7800   14.8930   19.0920 C   0  0  0  0  0  0  0  0  0  0  0  0
   12.2120   14.5780   20.2570 C   0  0  0  0  0  0  0  0  0  0  0  0
   11.0860   15.2100   20.6750 C   0  0  0  0  0  0  0  0  0  0  0  0
   11.5430   10.5090   25.2360 H   0  0  0  0  0  0  0  0  0  0  0  0
    5.7760   14.6410   27.2580 H   0  0  0  0  0  0  0  0  0  0  0  0
    7.2760   13.8740   27.8290 H   0  0  0  0  0  0  0  0  0  0  0  0
    5.3010   13.8300   29.2690 H   0  0  0  0  0  0  0  0  0  0  0  0
    6.1470   12.3130   28.9700 H   0  0  0  0  0  0  0  0  0  0  0  0
    5.2060   10.9190   27.7190 H   0  0  0  0  0  0  0  0  0  0  0  0
    3.5630   11.0890   27.1940 H   0  0  0  0  0  0  0  0  0  0  0  0
    4.4860   12.7460   25.4470 H   0  0  0  0  0  0  0  0  0  0  0  0
    5.3770   11.2190   25.5820 H   0  0  0  0  0  0  0  0  0  0  0  0
    7.8530    8.5830   25.4120 H   0  0  0  0  0  0  0  0  0  0  0  0
    8.0530    6.4670   24.0360 H   0  0  0  0  0  0  0  0  0  0  0  0
    9.0990    6.5610   22.0770 H   0  0  0  0  0  0  0  0  0  0  0  0
   10.2030    8.7430   21.3080 H   0  0  0  0  0  0  0  0  0  0  0  0
   10.0740   10.7050   22.6010 H   0  0  0  0  0  0  0  0  0  0  0  0
   11.3500   13.0130   21.9900 H   0  0  0  0  0  0  0  0  0  0  0  0
    8.8440   15.3180   23.2110 H   0  0  0  0  0  0  0  0  0  0  0  0
    7.9170   17.0690   21.7930 H   0  0  0  0  0  0  0  0  0  0  0  0
    8.9650   17.6630   19.6550 H   0  0  0  0  0  0  0  0  0  0  0  0
   10.7080   17.2880   17.9850 H   0  0  0  0  0  0  0  0  0  0  0  0
   12.7260   16.0870   17.3160 H   0  0  0  0  0  0  0  0  0  0  0  0
   13.6400   14.3700   18.8560 H   0  0  0  0  0  0  0  0  0  0  0  0
   12.6830   13.8050   20.8460 H   0  0  0  0  0  0  0  0  0  0  0  0
  1  2  3  0
  2  3  1  0
  3  4  2  3
  4  5  1  0
  5  6  1  0
  6  7  1  0
  7  8  1  0
  8  9  1  0
  9 10  1  0
 10 11  1  0
 11 12  1  0
 12 13  1  0
  7 14  2  0
 14 15  1  0
 15 16  1  0
 16 17  2  0
 17 18  1  0
 18 19  2  0
 19 20  1  0
 20 21  2  0
  3 22  1  0
 22 23  2  0
 22 24  1  0
 24 25  1  0
 25 26  2  0
 26 27  1  0
 27 28  2  0
 28 29  1  0
 29 30  2  0
 30 31  1  0
 31 32  2  0
 32 33  1  0
 33 34  2  0
 15  5  2  0
 21 16  1  0
 34 25  1  0
 13  8  1  0
 34 29  1  0
  4 35  1  0
  9 36  1  0
  9 37  1  0
 10 38  1  0
 10 39  1  0
 12 40  1  0
 12 41  1  0
 13 42  1  0
 13 43  1  0
 17 44  1  0
 18 45  1  0
 19 46  1  0
 20 47  1  0
 21 48  1  0
 24 49  1  0
 26 50  1  0
 27 51  1  0
 28 52  1  0
 30 53  1  0
 31 54  1  0
 32 55  1  0
 33 56  1  0
A    1
 N1 
A    2
 C1 
A    3
 C2 
A    4
 C3 
A    5
 C4 
A    6
 S1 
A    7
 C5 
A    8
 N2 
A    9
 C6 
A   10
 C7 
A   11
 O1 
A   12
 C8 
A   13
 C9 
A   14
 N3 
A   15
 C10
A   16
 C11
A   17
 C12
A   18
 C13
A   19
 C14
A   20
 C15
A   21
 C16
A   22
 C17
A   23
 O2 
A   24
 N4 
A   25
 C18
A   26
 C19
A   27
 C20
A   28
 C21
A   29
 C22
A   30
 C23
A   31
 C24
A   32
 C25
A   33
 C26
A   34
 C27
A   35
 H1 
A   36
 H2 
A   37
 H3 
A   38
 H4 
A   39
 H5 
A   40
 H6 
A   41
 H7 
A   42
 H8 
A   43
 H9 
A   44
 H10
A   45
 H11
A   46
 H12
A   47
 H13
A   48
 H14
A   49
 H15
A   50
 H16
A   51
 H17
A   52
 H18
A   53
 H19
A   54
 H20
A   55
 H21
A   56
 H22
M  END
>  <ref_pdb>  (15) 
x0451_0A

>  <ref_mols>  (15) 
x0451_0A,x0554_0A,x0556_0A,x0566_0A,x0310_0A,x0416_0A

>  <original SMILES>  (15) 
N#CC(=Cc1sc(N2CCOCC2)nc1-c1ccccc1)C(=O)Nc1cccc2ccccc12

>  <rationale>  (15) 
info info set:ROCS-cov2;Warhead 2.88548207930668Å to Cys110:SG; hbond:S125; hydroph_interaction:Y90+V124+D109+V84+D39; 

>  <∆∆G>  (15) 
-3.490117

>  <comRMSD>  (15) 
1.015238

>  <ROCS_TanimotoCombo>  (15) 
0.546

>  <ROCS_ShapeTanimoto>  (15) 
0.371

>  <ROCS_ColorTanimoto>  (15) 
0.175

>  <distance>  (15) 
2.885482

$$$$
Z44319268
     RDKit          3D

 56 59  0  0  0  0  0  0  0  0999 V2000
   14.4100   12.2060   24.1340 N   0  0  0  0  0  0  0  0  0  0  0  0
   13.3040   12.5530   24.0680 C   0  0  0  0  0  0  0  0  0  0  0  0
   11.8840   12.9570   24.1250 C   0  0  0  0  0  0  0  0  0  0  0  0
   11.1190   12.0090   25.0140 C   0  0  0  0  0  0  0  0  0  0  0  0
    9.6700   12.0520   25.3650 C   0  0  0  0  0  0  0  0  0  0  0  0
    8.9320   13.3690   26.3040 S   0  0  0  0  0  0  0  0  0  0  0  0
    7.3900   12.5760   26.1780 C   0  0  0  0  0  0  0  0  0  0  0  0
    6.1940   12.9960   26.6760 N   0  0  0  0  0  0  0  0  0  0  0  0
    4.9280   12.3040   26.3240 C   0  0  0  0  0  0  0  0  0  0  0  0
    4.3010   11.7230   27.4160 C   0  0  0  0  0  0  0  0  0  0  0  0
    4.3740   12.6090   28.5280 O   0  0  0  0  0  0  0  0  0  0  0  0
    5.5420   12.7870   28.8240 C   0  0  0  0  0  0  0  0  0  0  0  0
    6.1970   13.6030   27.8980 C   0  0  0  0  0  0  0  0  0  0  0  0
    7.4690   11.4300   25.4940 N   0  0  0  0  0  0  0  0  0  0  0  0
    8.6870   11.2110   25.0860 C   0  0  0  0  0  0  0  0  0  0  0  0
    8.9150   10.0350   24.3100 C   0  0  0  0  0  0  0  0  0  0  0  0
    8.3820    8.9150   24.7900 C   0  0  0  0  0  0  0  0  0  0  0  0
    8.5460    7.6660   24.0440 C   0  0  0  0  0  0  0  0  0  0  0  0
    9.2380    7.6330   22.8030 C   0  0  0  0  0  0  0  0  0  0  0  0
    9.8050    8.8260   22.3400 C   0  0  0  0  0  0  0  0  0  0  0  0
    9.6700   10.0970   23.0980 C   0  0  0  0  0  0  0  0  0  0  0  0
   11.1830   14.1070   23.4960 C   0  0  0  0  0  0  0  0  0  0  0  0
   10.9820   15.1150   24.1670 O   0  0  0  0  0  0  0  0  0  0  0  0
   10.7310   14.0280   22.1920 N   0  0  0  0  0  0  0  0  0  0  0  0
   10.3500   15.3060   21.5940 C   0  0  0  0  0  0  0  0  0  0  0  0
    9.8410   15.2990   20.1600 C   0  0  0  0  0  0  0  0  0  0  0  0
   10.8480   14.7010   19.1980 C   0  0  0  0  0  0  0  0  0  0  0  0
   12.2510   15.2370   19.4040 C   0  0  0  0  0  0  0  0  0  0  0  0
   12.5320   15.5440   20.7580 C   0  0  0  0  0  0  0  0  0  0  0  0
   11.5780   16.1550   21.5570 C   0  0  0  0  0  0  0  0  0  0  0  0
   11.6730   11.1910   25.4430 H   0  0  0  0  0  0  0  0  0  0  0  0
    5.2310   11.4570   25.7070 H   0  0  0  0  0  0  0  0  0  0  0  0
    4.3450   12.9530   25.6820 H   0  0  0  0  0  0  0  0  0  0  0  0
    3.2560   11.4400   27.3360 H   0  0  0  0  0  0  0  0  0  0  0  0
    4.8390   10.8040   27.6890 H   0  0  0  0  0  0  0  0  0  0  0  0
    5.5890   13.2190   29.8300 H   0  0  0  0  0  0  0  0  0  0  0  0
    6.0270   11.8090   28.8610 H   0  0  0  0  0  0  0  0  0  0  0  0
    5.6300   14.5400   27.8090 H   0  0  0  0  0  0  0  0  0  0  0  0
    7.2110   13.8710   28.1700 H   0  0  0  0  0  0  0  0  0  0  0  0
    7.8120    8.8360   25.7140 H   0  0  0  0  0  0  0  0  0  0  0  0
    8.1380    6.7520   24.4130 H   0  0  0  0  0  0  0  0  0  0  0  0
    9.2650    6.6910   22.3270 H   0  0  0  0  0  0  0  0  0  0  0  0
   10.3430    8.8900   21.4250 H   0  0  0  0  0  0  0  0  0  0  0  0
   10.1150   11.0140   22.7260 H   0  0  0  0  0  0  0  0  0  0  0  0
   10.9640   13.2320   21.5750 H   0  0  0  0  0  0  0  0  0  0  0  0
    9.6020   15.7840   22.2440 H   0  0  0  0  0  0  0  0  0  0  0  0
    8.8970   14.7830   20.1170 H   0  0  0  0  0  0  0  0  0  0  0  0
    9.6170   16.3210   19.8330 H   0  0  0  0  0  0  0  0  0  0  0  0
   10.5450   14.8990   18.1620 H   0  0  0  0  0  0  0  0  0  0  0  0
   10.8520   13.6220   19.3130 H   0  0  0  0  0  0  0  0  0  0  0  0
   12.9580   14.4860   19.0610 H   0  0  0  0  0  0  0  0  0  0  0  0
   12.3790   16.0930   18.7510 H   0  0  0  0  0  0  0  0  0  0  0  0
   12.7850   14.6110   21.2670 H   0  0  0  0  0  0  0  0  0  0  0  0
   13.4440   16.1410   20.7980 H   0  0  0  0  0  0  0  0  0  0  0  0
   11.3520   17.1530   21.1790 H   0  0  0  0  0  0  0  0  0  0  0  0
   11.9440   16.2820   22.5720 H   0  0  0  0  0  0  0  0  0  0  0  0
  1  2  3  0
  2  3  1  0
  3  4  2  3
  4  5  1  0
  5  6  1  0
  6  7  1  0
  7  8  1  0
  8  9  1  0
  9 10  1  0
 10 11  1  0
 11 12  1  0
 12 13  1  0
  7 14  2  0
 14 15  1  0
 15 16  1  0
 16 17  2  0
 17 18  1  0
 18 19  2  0
 19 20  1  0
 20 21  2  0
  3 22  1  0
 22 23  2  0
 22 24  1  0
 24 25  1  0
 25 26  1  0
 26 27  1  0
 27 28  1  0
 28 29  1  0
 29 30  1  0
 15  5  2  0
 21 16  1  0
 30 25  1  0
 13  8  1  0
  4 31  1  0
  9 32  1  0
  9 33  1  0
 10 34  1  0
 10 35  1  0
 12 36  1  0
 12 37  1  0
 13 38  1  0
 13 39  1  0
 17 40  1  0
 18 41  1  0
 19 42  1  0
 20 43  1  0
 21 44  1  0
 24 45  1  0
 25 46  1  0
 26 47  1  0
 26 48  1  0
 27 49  1  0
 27 50  1  0
 28 51  1  0
 28 52  1  0
 29 53  1  0
 29 54  1  0
 30 55  1  0
 30 56  1  0
A    1
 N1 
A    2
 C1 
A    3
 C2 
A    4
 C3 
A    5
 C4 
A    6
 S1 
A    7
 C5 
A    8
 N2 
A    9
 C6 
A   10
 C7 
A   11
 O1 
A   12
 C8 
A   13
 C9 
A   14
 N3 
A   15
 C10
A   16
 C11
A   17
 C12
A   18
 C13
A   19
 C14
A   20
 C15
A   21
 C16
A   22
 C17
A   23
 O2 
A   24
 N4 
A   25
 C18
A   26
 C19
A   27
 C20
A   28
 C21
A   29
 C22
A   30
 C23
A   31
 H1 
A   32
 H2 
A   33
 H3 
A   34
 H4 
A   35
 H5 
A   36
 H6 
A   37
 H7 
A   38
 H8 
A   39
 H9 
A   40
 H10
A   41
 H11
A   42
 H12
A   43
 H13
A   44
 H14
A   45
 H15
A   46
 H16
A   47
 H17
A   48
 H18
A   49
 H19
A   50
 H20
A   51
 H21
A   52
 H22
A   53
 H23
A   54
 H24
A   55
 H25
A   56
 H26
M  END
>  <ref_pdb>  (16) 
x0451_0A

>  <ref_mols>  (16) 
x0451_0A,x0554_0A,x0556_0A,x0566_0A,x0310_0A,x0416_0A

>  <original SMILES>  (16) 
N#CC(=Cc1sc(N2CCOCC2)nc1-c1ccccc1)C(=O)NC1CCCCC1

>  <rationale>  (16) 
info info set:ROCS-cov2;Warhead 2.9907738078965447Å to Cys110:SG; hbond:S87+S125; hydroph_interaction:Y89+Y90+V124+D109; 

>  <∆∆G>  (16) 
-3.365199

>  <comRMSD>  (16) 
1.123327

>  <ROCS_TanimotoCombo>  (16) 
0.523

>  <ROCS_ShapeTanimoto>  (16) 
0.362

>  <ROCS_ColorTanimoto>  (16) 
0.161

>  <distance>  (16) 
2.990774

$$$$
Z8604605053
     RDKit          3D

 47 50  0  0  0  0  0  0  0  0999 V2000
    9.7230   14.0240   24.3250 O   0  0  0  0  0  0  0  0  0  0  0  0
   10.2360   13.3950   23.3870 C   0  0  0  0  0  0  0  0  0  0  0  0
   10.2980   12.0560   23.3410 N   0  0  0  0  0  0  0  0  0  0  0  0
    9.3170   11.5780   24.1650 C   0  0  0  0  0  0  0  0  0  0  0  0
    8.0540   12.4090   24.4660 C   0  0  0  0  0  0  0  0  0  0  0  0
    7.0920   11.7010   25.4150 C   0  0  0  0  0  0  0  0  0  0  0  0
    7.4350   10.2490   25.6800 C   0  0  0  0  0  0  0  0  0  0  0  0
    8.5430    9.6350   25.1150 N   0  0  0  0  0  0  0  0  0  0  0  0
    8.6490    8.4530   24.4840 C   0  0  0  0  0  0  0  0  0  0  0  0
    8.3750    8.5430   23.2870 C   0  0  0  0  0  0  0  0  0  0  0  0
    9.7650    8.2480   23.3910 C   0  0  0  0  0  0  0  0  0  0  0  0
    9.5530   10.3420   24.6920 C   0  0  0  0  0  0  0  0  0  0  0  0
   10.7190    9.9470   24.7060 O   0  0  0  0  0  0  0  0  0  0  0  0
   10.8740   14.0780   22.2080 C   0  0  1  0  0  0  0  0  0  0  0  0
    9.9280   15.2570   22.0150 C   0  0  0  0  0  0  0  0  0  0  0  0
   10.7560   15.3910   20.7600 C   0  0  0  0  0  0  0  0  0  0  0  0
   10.1480   15.4000   19.3640 C   0  0  0  0  0  0  0  0  0  0  0  0
   10.9340   15.5560   18.2360 C   0  0  0  0  0  0  0  0  0  0  0  0
   12.2840   15.7000   18.4170 C   0  0  0  0  0  0  0  0  0  0  0  0
   12.8150   15.6810   19.6950 C   0  0  0  0  0  0  0  0  0  0  0  0
   12.1070   15.5370   20.8350 C   0  0  0  0  0  0  0  0  0  0  0  0
   12.7180   15.5280   22.1550 C   0  0  0  0  0  0  0  0  0  0  0  0
   12.2770   14.2700   22.6130 N   0  0  0  0  0  0  0  0  0  0  0  0
   12.7150   13.5860   23.7670 C   0  0  0  0  0  0  0  0  0  0  0  0
   12.7700   14.1300   24.8510 O   0  0  0  0  0  0  0  0  0  0  0  0
   13.0940   12.2170   23.7360 C   0  0  0  0  0  0  0  0  0  0  0  0
   14.3630   11.9040   24.9490 Cl  0  0  0  0  0  0  0  0  0  0  0  0
   10.4170   11.6290   22.4060 H   0  0  0  0  0  0  0  0  0  0  0  0
    7.7890   13.3880   24.0980 H   0  0  0  0  0  0  0  0  0  0  0  0
    6.2500   12.2430   25.8240 H   0  0  0  0  0  0  0  0  0  0  0  0
    6.8030    9.6580   26.3380 H   0  0  0  0  0  0  0  0  0  0  0  0
    8.4190    7.5830   25.0410 H   0  0  0  0  0  0  0  0  0  0  0  0
    7.8320    7.7880   22.7100 H   0  0  0  0  0  0  0  0  0  0  0  0
    8.2070    9.5350   22.9240 H   0  0  0  0  0  0  0  0  0  0  0  0
   10.3140    9.0790   22.9310 H   0  0  0  0  0  0  0  0  0  0  0  0
    9.9330    7.2990   22.9230 H   0  0  0  0  0  0  0  0  0  0  0  0
   10.8310   13.4270   21.3420 H   0  0  0  0  0  0  0  0  0  0  0  0
    8.8820   14.9730   21.8440 H   0  0  0  0  0  0  0  0  0  0  0  0
   10.0380   16.0790   22.7280 H   0  0  0  0  0  0  0  0  0  0  0  0
    9.0660   15.2800   19.3370 H   0  0  0  0  0  0  0  0  0  0  0  0
   10.4930   15.5650   17.2430 H   0  0  0  0  0  0  0  0  0  0  0  0
   12.9270   15.8300   17.5650 H   0  0  0  0  0  0  0  0  0  0  0  0
   13.8520   15.7890   19.8900 H   0  0  0  0  0  0  0  0  0  0  0  0
   13.7450   15.6680   22.3670 H   0  0  0  0  0  0  0  0  0  0  0  0
   12.1700   16.2610   22.7480 H   0  0  0  0  0  0  0  0  0  0  0  0
   12.2410   11.5590   23.9090 H   0  0  0  0  0  0  0  0  0  0  0  0
   13.4810   11.9940   22.7500 H   0  0  0  0  0  0  0  0  0  0  0  0
  1  2  2  0
  2  3  1  0
  3  4  1  0
  4  5  2  0
  5  6  1  0
  6  7  2  0
  7  8  1  0
  8  9  1  0
  9 10  1  0
 10 11  1  0
  8 12  1  0
 12 13  2  0
  2 14  1  0
 14 15  1  0
 15 16  1  0
 16 17  2  0
 17 18  1  0
 18 19  2  0
 19 20  1  0
 20 21  2  0
 21 22  1  0
 22 23  1  0
 23 24  1  0
 24 25  2  0
 24 26  1  0
 26 27  1  0
 12  4  1  0
 23 14  1  0
 11  9  1  0
 21 16  1  0
  3 28  1  0
  5 29  1  0
  6 30  1  0
  7 31  1  0
  9 32  1  0
 10 33  1  0
 10 34  1  0
 11 35  1  0
 11 36  1  0
 14 37  1  6
 15 38  1  0
 15 39  1  0
 17 40  1  0
 18 41  1  0
 19 42  1  0
 20 43  1  0
 22 44  1  0
 22 45  1  0
 26 46  1  0
 26 47  1  0
A    1
 O1 
A    2
 C1 
A    3
 N1 
A    4
 C2 
A    5
 C3 
A    6
 C4 
A    7
 C5 
A    8
 N2 
A    9
 C6 
A   10
 C7 
A   11
 C8 
A   12
 C9 
A   13
 O2 
A   14
 C10
A   15
 C11
A   16
 C12
A   17
 C13
A   18
 C14
A   19
 C15
A   20
 C16
A   21
 C17
A   22
 C18
A   23
 N3 
A   24
 C19
A   25
 O3 
A   26
 C20
A   27
CL1 
A   28
 H1 
A   29
 H2 
A   30
 H3 
A   31
 H4 
A   32
 H5 
A   33
 H6 
A   34
 H7 
A   35
 H8 
A   36
 H9 
A   37
 H10
A   38
 H11
A   39
 H12
A   40
 H13
A   41
 H14
A   42
 H15
A   43
 H16
A   44
 H17
A   45
 H18
A   46
 H19
A   47
 H20
M  END
>  <ref_pdb>  (17) 
x0451_0A

>  <ref_mols>  (17) 
x0451_0A,x0554_0A,x0556_0A,x0566_0A,x0310_0A,x0416_0A

>  <original SMILES>  (17) 
O=C(Nc1cccn(C2CC2)c1=O)[C@H]1Cc2ccccc2CN1C(=O)CCl

>  <rationale>  (17) 
info info set:ROCS-cov2;Warhead 1.6864782477102989Å to Cys110:SG; hbond:S125+D109+A110+G108; hydroph_interaction:Y90+V124+D109+D39; 

>  <∆∆G>  (17) 
-3.004654

>  <comRMSD>  (17) 
1.516958

>  <ROCS_TanimotoCombo>  (17) 
0.537

>  <ROCS_ShapeTanimoto>  (17) 
0.38

>  <ROCS_ColorTanimoto>  (17) 
0.156

>  <distance>  (17) 
1.686478

$$$$
Z44322584
     RDKit          3D

 51 54  0  0  0  0  0  0  0  0999 V2000
   14.5540   12.8110   24.4260 N   0  0  0  0  0  0  0  0  0  0  0  0
   13.4180   12.9480   24.2650 C   0  0  0  0  0  0  0  0  0  0  0  0
   11.9180   13.0400   24.1830 C   0  0  0  0  0  0  0  0  0  0  0  0
   11.2710   11.8850   24.8710 C   0  0  0  0  0  0  0  0  0  0  0  0
    9.7530   11.7210   24.9810 C   0  0  0  0  0  0  0  0  0  0  0  0
    8.7710   12.6280   25.6330 C   0  0  0  0  0  0  0  0  0  0  0  0
    7.5900   11.9430   25.4440 N   0  0  0  0  0  0  0  0  0  0  0  0
    6.4160   12.2250   25.8240 C   0  0  0  0  0  0  0  0  0  0  0  0
    5.7420   10.9940   26.3870 C   0  0  0  0  0  0  0  0  0  0  0  0
    4.3630   11.1200   26.9070 C   0  0  0  0  0  0  0  0  0  0  0  0
    3.7580   12.5510   26.7870 C   0  0  0  0  0  0  0  0  0  0  0  0
    4.4320   13.6370   26.2500 C   0  0  0  0  0  0  0  0  0  0  0  0
    5.8380   13.4710   25.7410 C   0  0  0  0  0  0  0  0  0  0  0  0
    7.7070   10.8030   24.7760 N   0  0  0  0  0  0  0  0  0  0  0  0
    8.9650   10.7230   24.5430 C   0  0  0  0  0  0  0  0  0  0  0  0
    9.4570    9.6110   23.8850 C   0  0  0  0  0  0  0  0  0  0  0  0
    8.6300    8.6560   23.4620 C   0  0  0  0  0  0  0  0  0  0  0  0
    9.2740    7.6810   22.9090 C   0  0  0  0  0  0  0  0  0  0  0  0
   10.5950    7.9890   22.9580 C   0  0  0  0  0  0  0  0  0  0  0  0
   11.0500    9.4280   23.6320 S   0  0  0  0  0  0  0  0  0  0  0  0
   11.1340   14.1280   23.5550 C   0  0  0  0  0  0  0  0  0  0  0  0
   10.9200   15.1520   24.1820 O   0  0  0  0  0  0  0  0  0  0  0  0
   10.6130   13.9290   22.2960 N   0  0  0  0  0  0  0  0  0  0  0  0
    9.3400   14.5930   22.0350 C   0  0  0  0  0  0  0  0  0  0  0  0
    9.3600   15.4810   20.7970 C   0  0  0  0  0  0  0  0  0  0  0  0
   10.6210   15.4140   20.2850 C   0  0  0  0  0  0  0  0  0  0  0  0
   10.8160   15.0310   18.9750 C   0  0  0  0  0  0  0  0  0  0  0  0
   12.0590   14.9510   18.5010 C   0  0  0  0  0  0  0  0  0  0  0  0
   13.0770   15.2490   19.3290 C   0  0  0  0  0  0  0  0  0  0  0  0
   12.9210   15.6500   20.6500 C   0  0  0  0  0  0  0  0  0  0  0  0
   11.6700   15.7330   21.1310 C   0  0  0  0  0  0  0  0  0  0  0  0
   11.9080   11.1250   25.3150 H   0  0  0  0  0  0  0  0  0  0  0  0
    8.8500   13.5710   26.1510 H   0  0  0  0  0  0  0  0  0  0  0  0
    6.2420   10.0260   26.4260 H   0  0  0  0  0  0  0  0  0  0  0  0
    3.8220   10.2800   27.3330 H   0  0  0  0  0  0  0  0  0  0  0  0
    2.7380   12.6070   27.1760 H   0  0  0  0  0  0  0  0  0  0  0  0
    3.9470   14.6090   26.1990 H   0  0  0  0  0  0  0  0  0  0  0  0
    6.3460   14.3370   25.3300 H   0  0  0  0  0  0  0  0  0  0  0  0
    7.5940    8.7350   23.5930 H   0  0  0  0  0  0  0  0  0  0  0  0
    8.8320    6.7840   22.4930 H   0  0  0  0  0  0  0  0  0  0  0  0
   11.3420    7.4030   22.6110 H   0  0  0  0  0  0  0  0  0  0  0  0
   10.8720   13.1160   21.7170 H   0  0  0  0  0  0  0  0  0  0  0  0
    8.5610   13.8360   21.9850 H   0  0  0  0  0  0  0  0  0  0  0  0
    9.1310   15.2020   22.9210 H   0  0  0  0  0  0  0  0  0  0  0  0
    8.6370   15.1590   20.0510 H   0  0  0  0  0  0  0  0  0  0  0  0
    9.0980   16.5170   21.0540 H   0  0  0  0  0  0  0  0  0  0  0  0
    9.9750   14.7910   18.3280 H   0  0  0  0  0  0  0  0  0  0  0  0
   12.2250   14.6510   17.4800 H   0  0  0  0  0  0  0  0  0  0  0  0
   14.0390   15.1720   18.9230 H   0  0  0  0  0  0  0  0  0  0  0  0
   13.7700   15.8870   21.2750 H   0  0  0  0  0  0  0  0  0  0  0  0
   11.5000   16.0390   22.1600 H   0  0  0  0  0  0  0  0  0  0  0  0
  1  2  3  0
  2  3  1  0
  3  4  2  3
  4  5  1  0
  5  6  2  0
  6  7  1  0
  7  8  1  0
  8  9  2  0
  9 10  1  0
 10 11  2  0
 11 12  1  0
 12 13  2  0
  7 14  1  0
 14 15  2  0
 15 16  1  0
 16 17  2  0
 17 18  1  0
 18 19  2  0
 19 20  1  0
  3 21  1  0
 21 22  2  0
 21 23  1  0
 23 24  1  0
 24 25  1  0
 25 26  1  0
 26 27  2  0
 27 28  1  0
 28 29  2  0
 29 30  1  0
 30 31  2  0
 15  5  1  0
 20 16  1  0
 31 26  1  0
 13  8  1  0
  4 32  1  0
  6 33  1  0
  9 34  1  0
 10 35  1  0
 11 36  1  0
 12 37  1  0
 13 38  1  0
 17 39  1  0
 18 40  1  0
 19 41  1  0
 23 42  1  0
 24 43  1  0
 24 44  1  0
 25 45  1  0
 25 46  1  0
 27 47  1  0
 28 48  1  0
 29 49  1  0
 30 50  1  0
 31 51  1  0
A    1
 N1 
A    2
 C1 
A    3
 C2 
A    4
 C3 
A    5
 C4 
A    6
 C5 
A    7
 N2 
A    8
 C6 
A    9
 C7 
A   10
 C8 
A   11
 C9 
A   12
 C10
A   13
 C11
A   14
 N3 
A   15
 C12
A   16
 C13
A   17
 C14
A   18
 C15
A   19
 C16
A   20
 S1 
A   21
 C17
A   22
 O1 
A   23
 N4 
A   24
 C18
A   25
 C19
A   26
 C20
A   27
 C21
A   28
 C22
A   29
 C23
A   30
 C24
A   31
 C25
A   32
 H1 
A   33
 H2 
A   34
 H3 
A   35
 H4 
A   36
 H5 
A   37
 H6 
A   38
 H7 
A   39
 H8 
A   40
 H9 
A   41
 H10
A   42
 H11
A   43
 H12
A   44
 H13
A   45
 H14
A   46
 H15
A   47
 H16
A   48
 H17
A   49
 H18
A   50
 H19
A   51
 H20
M  END
>  <ref_pdb>  (18) 
x0451_0A

>  <ref_mols>  (18) 
x0451_0A,x0554_0A,x0556_0A,x0566_0A,x0310_0A,x0416_0A

>  <original SMILES>  (18) 
N#CC(=Cc1cn(-c2ccccc2)nc1-c1cccs1)C(=O)NCCc1ccccc1

>  <rationale>  (18) 
info info set:ROCS-cov2;Warhead 2.6682677114562554Å to Cys110:SG; hbond:S87+S125; hydroph_interaction:Y89+Y90+V124+D109+V84+D39; 

>  <∆∆G>  (18) 
-2.685095

>  <comRMSD>  (18) 
1.314642

>  <ROCS_TanimotoCombo>  (18) 
0.528

>  <ROCS_ShapeTanimoto>  (18) 
0.355

>  <ROCS_ColorTanimoto>  (18) 
0.173

>  <distance>  (18) 
2.668268

$$$$
Z4425282871
     RDKit          3D

 51 53  0  0  0  0  0  0  0  0999 V2000
   14.0430   12.1590   24.5140 C   0  0  0  0  0  0  0  0  0  0  0  0
   12.8170   12.2400   23.5850 C   0  0  0  0  0  0  0  0  0  0  0  0
   12.4500   13.6370   23.0730 C   0  0  0  0  0  0  0  0  0  0  0  0
   12.6840   14.5570   23.8150 O   0  0  0  0  0  0  0  0  0  0  0  0
   11.8390   13.8270   21.8180 N   0  0  0  0  0  0  0  0  0  0  0  0
   11.0540   14.9310   21.4780 C   0  0  0  0  0  0  0  0  0  0  0  0
   10.0590   15.0680   22.3740 C   0  0  0  0  0  0  0  0  0  0  0  0
    9.4900   14.0580   23.0800 N   0  0  0  0  0  0  0  0  0  0  0  0
   10.1410   13.3420   24.0520 C   0  0  0  0  0  0  0  0  0  0  0  0
   10.9490   13.8370   24.8400 O   0  0  0  0  0  0  0  0  0  0  0  0
    9.7320   11.8530   24.0840 C   0  0  0  0  0  0  0  0  0  0  0  0
   10.6320   10.9090   23.2720 C   0  0  0  0  0  0  0  0  0  0  0  0
   10.2260    9.4330   23.3140 C   0  0  0  0  0  0  0  0  0  0  0  0
    9.0010    9.0260   24.1290 C   0  0  0  0  0  0  0  0  0  0  0  0
    8.2530   10.1490   24.8520 C   0  0  0  0  0  0  0  0  0  0  0  0
    7.1310   10.0660   25.6380 N   0  0  0  0  0  0  0  0  0  0  0  0
    6.8120   11.2730   26.0680 N   0  0  0  0  0  0  0  0  0  0  0  0
    7.7260   12.1100   25.5590 N   0  0  0  0  0  0  0  0  0  0  0  0
    7.6270   13.5100   25.8640 C   0  0  0  0  0  0  0  0  0  0  0  0
    8.6450   11.4510   24.7930 C   0  0  0  0  0  0  0  0  0  0  0  0
   10.4800   14.7370   20.0520 C   0  0  0  0  0  0  0  0  0  0  0  0
   10.6440   15.7290   19.0800 C   0  0  0  0  0  0  0  0  0  0  0  0
   11.8120   15.7190   18.3640 C   0  0  0  0  0  0  0  0  0  0  0  0
   12.9860   15.3020   19.2260 C   0  0  0  0  0  0  0  0  0  0  0  0
   13.1270   15.8290   20.6430 C   0  0  0  0  0  0  0  0  0  0  0  0
   11.9170   16.1470   21.4110 C   0  0  0  0  0  0  0  0  0  0  0  0
   14.3810   11.2090   24.9370 H   0  0  0  0  0  0  0  0  0  0  0  0
   14.6080   13.0600   24.7760 H   0  0  0  0  0  0  0  0  0  0  0  0
   12.2380   11.3790   23.3130 H   0  0  0  0  0  0  0  0  0  0  0  0
   11.6900   12.9900   21.2530 H   0  0  0  0  0  0  0  0  0  0  0  0
    9.2170   15.5610   21.8740 H   0  0  0  0  0  0  0  0  0  0  0  0
   10.4100   15.7860   23.1240 H   0  0  0  0  0  0  0  0  0  0  0  0
    8.6140   13.6830   22.7070 H   0  0  0  0  0  0  0  0  0  0  0  0
   11.5010   11.1350   22.6840 H   0  0  0  0  0  0  0  0  0  0  0  0
   10.8030    8.6850   22.7710 H   0  0  0  0  0  0  0  0  0  0  0  0
    8.6840    7.9920   24.1880 H   0  0  0  0  0  0  0  0  0  0  0  0
    8.5820   13.8650   26.2680 H   0  0  0  0  0  0  0  0  0  0  0  0
    7.4310   14.0580   24.9350 H   0  0  0  0  0  0  0  0  0  0  0  0
    6.8420   13.6640   26.6150 H   0  0  0  0  0  0  0  0  0  0  0  0
    9.4010   14.5990   20.1730 H   0  0  0  0  0  0  0  0  0  0  0  0
   10.8560   13.7940   19.6320 H   0  0  0  0  0  0  0  0  0  0  0  0
    9.8310   15.5910   18.3600 H   0  0  0  0  0  0  0  0  0  0  0  0
   10.4710   16.7230   19.5120 H   0  0  0  0  0  0  0  0  0  0  0  0
   11.9800   16.7240   17.9750 H   0  0  0  0  0  0  0  0  0  0  0  0
   11.7230   15.0690   17.4870 H   0  0  0  0  0  0  0  0  0  0  0  0
   12.9450   14.2080   19.3060 H   0  0  0  0  0  0  0  0  0  0  0  0
   13.8990   15.4970   18.7000 H   0  0  0  0  0  0  0  0  0  0  0  0
   13.8600   16.6270   20.7020 H   0  0  0  0  0  0  0  0  0  0  0  0
   13.5510   15.0560   21.2330 H   0  0  0  0  0  0  0  0  0  0  0  0
   12.1550   16.4420   22.4300 H   0  0  0  0  0  0  0  0  0  0  0  0
   11.4110   17.0040   20.9510 H   0  0  0  0  0  0  0  0  0  0  0  0
  1  2  2  0
  2  3  1  0
  3  4  2  0
  3  5  1  0
  5  6  1  0
  6  7  1  0
  7  8  1  0
  8  9  1  0
  9 10  2  0
  9 11  1  0
 11 12  2  0
 12 13  1  0
 13 14  2  0
 14 15  1  0
 15 16  1  0
 16 17  2  0
 17 18  1  0
 18 19  1  0
 18 20  1  0
  6 21  1  0
 21 22  1  0
 22 23  1  0
 23 24  1  0
 24 25  1  0
 25 26  1  0
 26  6  1  0
 20 11  1  0
 20 15  2  0
  1 27  1  0
  1 28  1  0
  2 29  1  0
  5 30  1  0
  7 31  1  0
  7 32  1  0
  8 33  1  0
 12 34  1  0
 13 35  1  0
 14 36  1  0
 19 37  1  0
 19 38  1  0
 19 39  1  0
 21 40  1  0
 21 41  1  0
 22 42  1  0
 22 43  1  0
 23 44  1  0
 23 45  1  0
 24 46  1  0
 24 47  1  0
 25 48  1  0
 25 49  1  0
 26 50  1  0
 26 51  1  0
A    1
 C1 
A    2
 C2 
A    3
 C3 
A    4
 O1 
A    5
 N1 
A    6
 C4 
A    7
 C5 
A    8
 N2 
A    9
 C6 
A   10
 O2 
A   11
 C7 
A   12
 C8 
A   13
 C9 
A   14
 C10
A   15
 C11
A   16
 N3 
A   17
 N4 
A   18
 N5 
A   19
 C12
A   20
 C13
A   21
 C14
A   22
 C15
A   23
 C16
A   24
 C17
A   25
 C18
A   26
 C19
A   27
 H1 
A   28
 H2 
A   29
 H3 
A   30
 H4 
A   31
 H5 
A   32
 H6 
A   33
 H7 
A   34
 H8 
A   35
 H9 
A   36
 H10
A   37
 H11
A   38
 H12
A   39
 H13
A   40
 H14
A   41
 H15
A   42
 H16
A   43
 H17
A   44
 H18
A   45
 H19
A   46
 H20
A   47
 H21
A   48
 H22
A   49
 H23
A   50
 H24
A   51
 H25
M  END
>  <ref_pdb>  (19) 
x0451_0A

>  <ref_mols>  (19) 
x0451_0A,x0554_0A,x0556_0A,x0566_0A,x0310_0A,x0416_0A

>  <original SMILES>  (19) 
C=CC(=O)NC1(CNC(=O)c2cccc3nnn(C)c23)CCCCCC1

>  <rationale>  (19) 
info info set:ROCS-cov2;Warhead 2.0658769130807393Å to Cys110:SG; hbond:S125+T126; hydroph_interaction:Y89+Y90+A110+D39; 

>  <∆∆G>  (19) 
-2.65613

>  <comRMSD>  (19) 
1.218645

>  <ROCS_TanimotoCombo>  (19) 
0.599

>  <ROCS_ShapeTanimoto>  (19) 
0.38

>  <ROCS_ColorTanimoto>  (19) 
0.219

>  <distance>  (19) 
2.065877

$$$$
Z3366906784
     RDKit          3D

 54 57  0  0  0  0  0  0  0  0999 V2000
   15.4310   10.5230   25.3020 C   0  0  0  0  0  0  0  0  0  0  0  0
   15.7950   11.8410   25.9770 C   0  0  0  0  0  0  0  0  0  0  0  0
   14.5820   12.7310   26.2410 C   0  0  0  0  0  0  0  0  0  0  0  0
   14.6010   13.4320   27.2460 O   0  0  0  0  0  0  0  0  0  0  0  0
   13.5300   12.7190   25.3260 N   0  0  0  0  0  0  0  0  0  0  0  0
   12.3700   13.5860   25.4400 C   0  0  0  0  0  0  0  0  0  0  0  0
   12.4960   14.5190   24.2400 C   0  0  0  0  0  0  0  0  0  0  0  0
   11.9410   13.7760   23.1210 C   0  0  0  0  0  0  0  0  0  0  0  0
   10.5610   13.3840   23.4910 C   0  0  0  0  0  0  0  0  0  0  0  0
    9.8160   14.0020   24.2410 O   0  0  0  0  0  0  0  0  0  0  0  0
   10.2720   12.2720   22.8890 N   0  0  0  0  0  0  0  0  0  0  0  0
   10.3920   11.0470   23.5350 C   0  0  0  0  0  0  0  0  0  0  0  0
    9.3010   10.8310   24.2940 C   0  0  0  0  0  0  0  0  0  0  0  0
    8.9430    9.4220   24.4550 C   0  0  0  0  0  0  0  0  0  0  0  0
    7.8530    9.3240   25.2320 N   0  0  0  0  0  0  0  0  0  0  0  0
    7.5460   10.6130   25.5370 C   0  0  0  0  0  0  0  0  0  0  0  0
    8.3930   11.5230   24.9880 N   0  0  0  0  0  0  0  0  0  0  0  0
    8.0350   12.8780   25.3330 C   0  0  0  0  0  0  0  0  0  0  0  0
    6.9540   12.6390   26.1920 C   0  0  0  0  0  0  0  0  0  0  0  0
    6.5220   11.3200   26.3230 C   0  0  0  0  0  0  0  0  0  0  0  0
   11.7460   14.6600   21.8280 C   0  0  0  0  0  0  0  0  0  0  0  0
   11.0420   15.8740   21.8840 C   0  0  0  0  0  0  0  0  0  0  0  0
   10.8320   16.6530   20.7330 C   0  0  0  0  0  0  0  0  0  0  0  0
   11.3300   16.2400   19.4980 C   0  0  0  0  0  0  0  0  0  0  0  0
   12.0270   15.0660   19.4230 C   0  0  0  0  0  0  0  0  0  0  0  0
   12.2170   14.3030   20.5630 C   0  0  0  0  0  0  0  0  0  0  0  0
   12.6460   12.3880   22.9880 C   0  0  0  0  0  0  0  0  0  0  0  0
   13.5920   11.9360   24.1270 C   0  0  0  0  0  0  0  0  0  0  0  0
   14.4120   10.2440   25.0430 H   0  0  0  0  0  0  0  0  0  0  0  0
   16.1600    9.7530   25.0270 H   0  0  0  0  0  0  0  0  0  0  0  0
   16.8020   12.1180   26.2390 H   0  0  0  0  0  0  0  0  0  0  0  0
   12.4620   14.0680   26.4050 H   0  0  0  0  0  0  0  0  0  0  0  0
   11.4780   12.9680   25.5040 H   0  0  0  0  0  0  0  0  0  0  0  0
   12.0550   15.4890   24.3720 H   0  0  0  0  0  0  0  0  0  0  0  0
   13.5440   14.6490   24.0180 H   0  0  0  0  0  0  0  0  0  0  0  0
   10.5810   12.1930   21.9210 H   0  0  0  0  0  0  0  0  0  0  0  0
   10.5510   10.3390   22.7220 H   0  0  0  0  0  0  0  0  0  0  0  0
   11.3370   11.0440   24.0710 H   0  0  0  0  0  0  0  0  0  0  0  0
    9.5450    8.6440   23.9710 H   0  0  0  0  0  0  0  0  0  0  0  0
    7.6870   13.3980   24.4300 H   0  0  0  0  0  0  0  0  0  0  0  0
    8.8700   13.3830   25.8200 H   0  0  0  0  0  0  0  0  0  0  0  0
    6.1270   13.2850   25.8800 H   0  0  0  0  0  0  0  0  0  0  0  0
    7.2440   12.9910   27.1820 H   0  0  0  0  0  0  0  0  0  0  0  0
    5.5340   11.1890   25.8740 H   0  0  0  0  0  0  0  0  0  0  0  0
    6.4910   11.0090   27.3690 H   0  0  0  0  0  0  0  0  0  0  0  0
   10.6380   16.2280   22.8280 H   0  0  0  0  0  0  0  0  0  0  0  0
   10.2780   17.5850   20.8020 H   0  0  0  0  0  0  0  0  0  0  0  0
   11.1680   16.8400   18.6060 H   0  0  0  0  0  0  0  0  0  0  0  0
   12.4270   14.7240   18.4710 H   0  0  0  0  0  0  0  0  0  0  0  0
   12.7530   13.3930   20.4220 H   0  0  0  0  0  0  0  0  0  0  0  0
   13.1240   12.2770   22.0180 H   0  0  0  0  0  0  0  0  0  0  0  0
   11.8930   11.5970   22.9360 H   0  0  0  0  0  0  0  0  0  0  0  0
   14.6170   11.8730   23.7620 H   0  0  0  0  0  0  0  0  0  0  0  0
   13.3190   10.9200   24.4310 H   0  0  0  0  0  0  0  0  0  0  0  0
  1  2  2  0
  2  3  1  0
  3  4  2  0
  3  5  1  0
  5  6  1  0
  6  7  1  0
  7  8  1  0
  8  9  1  0
  9 10  2  0
  9 11  1  0
 11 12  1  0
 12 13  1  0
 13 14  2  0
 14 15  1  0
 15 16  2  0
 16 17  1  0
 17 18  1  0
 18 19  1  0
 19 20  1  0
  8 21  1  0
 21 22  2  0
 22 23  1  0
 23 24  2  0
 24 25  1  0
 25 26  2  0
  8 27  1  0
 27 28  1  0
 28  5  1  0
 17 13  1  0
 26 21  1  0
 20 16  1  0
  1 29  1  0
  1 30  1  0
  2 31  1  0
  6 32  1  0
  6 33  1  0
  7 34  1  0
  7 35  1  0
 11 36  1  0
 12 37  1  0
 12 38  1  0
 14 39  1  0
 18 40  1  0
 18 41  1  0
 19 42  1  0
 19 43  1  0
 20 44  1  0
 20 45  1  0
 22 46  1  0
 23 47  1  0
 24 48  1  0
 25 49  1  0
 26 50  1  0
 27 51  1  0
 27 52  1  0
 28 53  1  0
 28 54  1  0
A    1
 C1 
A    2
 C2 
A    3
 C3 
A    4
 O1 
A    5
 N1 
A    6
 C4 
A    7
 C5 
A    8
 C6 
A    9
 C7 
A   10
 O2 
A   11
 N2 
A   12
 C8 
A   13
 C9 
A   14
 C10
A   15
 N3 
A   16
 C11
A   17
 N4 
A   18
 C12
A   19
 C13
A   20
 C14
A   21
 C15
A   22
 C16
A   23
 C17
A   24
 C18
A   25
 C19
A   26
 C20
A   27
 C21
A   28
 C22
A   29
 H1 
A   30
 H2 
A   31
 H3 
A   32
 H4 
A   33
 H5 
A   34
 H6 
A   35
 H7 
A   36
 H8 
A   37
 H9 
A   38
 H10
A   39
 H11
A   40
 H12
A   41
 H13
A   42
 H14
A   43
 H15
A   44
 H16
A   45
 H17
A   46
 H18
A   47
 H19
A   48
 H20
A   49
 H21
A   50
 H22
A   51
 H23
A   52
 H24
A   53
 H25
A   54
 H26
M  END
>  <ref_pdb>  (20) 
x0451_0A

>  <ref_mols>  (20) 
x0451_0A,x0554_0A,x0556_0A,x0566_0A,x0310_0A,x0416_0A

>  <original SMILES>  (20) 
C=CC(=O)N1CCC(C(=O)NCc2cnc3n2CCC3)(c2ccccc2)CC1

>  <rationale>  (20) 
info info set:ROCS-cov2;Warhead 2.7800540300504966Å to Cys110:SG; hbond:S125; hydroph_interaction:Y89+Y90+L22; pistack:H21; 

>  <∆∆G>  (20) 
-2.434573

>  <comRMSD>  (20) 
1.238662

>  <ROCS_TanimotoCombo>  (20) 
0.533

>  <ROCS_ShapeTanimoto>  (20) 
0.343

>  <ROCS_ColorTanimoto>  (20) 
0.19

>  <distance>  (20) 
2.780054

$$$$
Z1255404462
     RDKit          3D

 11 11  0  0  0  0  0  0  0  0999 V2000
   12.1440   11.6300   23.9430 C   0  0  0  0  0  0  0  0  0  0  0  0
   11.2550   10.4810   23.6700 C   0  0  0  0  0  0  0  0  0  0  0  0
    9.9180   10.5490   24.0610 C   0  0  0  0  0  0  0  0  0  0  0  0
    9.0940   11.7670   24.1190 C   0  0  0  0  0  0  0  0  0  0  0  0
    7.8430   11.4150   24.5560 C   0  0  0  0  0  0  0  0  0  0  0  0
    7.8270    9.9820   24.7810 N   0  0  0  0  0  0  0  0  0  0  0  0
    9.0820    9.5510   24.4690 N   0  0  0  0  0  0  0  0  0  0  0  0
   12.3950   12.1470   23.0070 H   0  0  0  0  0  0  0  0  0  0  0  0
    9.4190   12.7610   23.8640 H   0  0  0  0  0  0  0  0  0  0  0  0
    6.9680   12.0200   24.7290 H   0  0  0  0  0  0  0  0  0  0  0  0
    9.2910    8.5620   24.5600 H   0  0  0  0  0  0  0  0  0  0  0  0
  1  2  3  0
  2  3  1  0
  3  4  2  0
  4  5  1  0
  5  6  2  0
  6  7  1  0
  7  3  1  0
  1  8  1  0
  4  9  1  0
  5 10  1  0
  7 11  1  0
A    1
 C1 
A    2
 C2 
A    3
 C3 
A    4
 C4 
A    5
 C5 
A    6
 N1 
A    7
 N2 
A    8
 H1 
A    9
 H2 
A   10
 H3 
A   11
 H4 
M  END
>  <ref_pdb>  (21) 
x0451_0A

>  <ref_mols>  (21) 
x0451_0A,x0554_0A,x0556_0A,x0566_0A,x0310_0A,x0416_0A

>  <original SMILES>  (21) 
C#Cc1ccn[nH]1

>  <rationale>  (21) 
info info set:ROCS-quat;Warhead 1.3676741607561351Å to Cys110:SG; hbond:E106; hydroph_interaction:A110; 

>  <∆∆G>  (21) 
-2.427491

>  <comRMSD>  (21) 
0.516794

>  <ROCS_TanimotoCombo>  (21) 
0.237

>  <ROCS_ShapeTanimoto>  (21) 
0.143

>  <ROCS_ColorTanimoto>  (21) 
0.094

>  <distance>  (21) 
1.367674

$$$$
Z1183458138
     RDKit          3D

 12 12  0  0  0  0  0  0  0  0999 V2000
   11.7660   12.6030   22.9650 C   0  0  0  0  0  0  0  0  0  0  0  0
   11.1640   11.2550   23.1190 C   0  0  0  0  0  0  0  0  0  0  0  0
    9.9420   11.0960   23.7350 C   0  0  0  0  0  0  0  0  0  0  0  0
    9.4180    9.8160   23.9100 C   0  0  0  0  0  0  0  0  0  0  0  0
    8.2270    9.6030   24.5130 N   0  0  0  0  0  0  0  0  0  0  0  0
    7.5780   10.7140   24.9330 C   0  0  0  0  0  0  0  0  0  0  0  0
    8.0990   12.0030   24.7580 C   0  0  0  0  0  0  0  0  0  0  0  0
    9.3150   12.2230   24.1430 N   0  0  0  0  0  0  0  0  0  0  0  0
   12.5640   12.6080   22.2150 H   0  0  0  0  0  0  0  0  0  0  0  0
    9.9450    8.9300   23.5690 H   0  0  0  0  0  0  0  0  0  0  0  0
    6.6200   10.5520   25.4150 H   0  0  0  0  0  0  0  0  0  0  0  0
    7.5600   12.8940   25.1040 H   0  0  0  0  0  0  0  0  0  0  0  0
  1  2  3  0
  2  3  1  0
  3  4  2  0
  4  5  1  0
  5  6  2  0
  6  7  1  0
  7  8  2  0
  8  3  1  0
  1  9  1  0
  4 10  1  0
  6 11  1  0
  7 12  1  0
A    1
 C1 
A    2
 C2 
A    3
 C3 
A    4
 C4 
A    5
 N1 
A    6
 C5 
A    7
 C6 
A    8
 N2 
A    9
 H1 
A   10
 H2 
A   11
 H3 
A   12
 H4 
M  END
>  <ref_pdb>  (22) 
x0451_0A

>  <ref_mols>  (22) 
x0451_0A,x0554_0A,x0556_0A,x0566_0A,x0310_0A,x0416_0A

>  <original SMILES>  (22) 
C#Cc1cnccn1

>  <rationale>  (22) 
info info set:ROCS-quat;Warhead 2.662996710474872Å to Cys110:SG; hydroph_interaction:A110; 

>  <∆∆G>  (22) 
-2.289638

>  <comRMSD>  (22) 
0.554094

>  <ROCS_TanimotoCombo>  (22) 
0.257

>  <ROCS_ShapeTanimoto>  (22) 
0.175

>  <ROCS_ColorTanimoto>  (22) 
0.082

>  <distance>  (22) 
2.662997

$$$$
Z2285377640
     RDKit          3D

 37 38  0  0  0  0  0  0  0  0999 V2000
   14.9490   12.0050   24.5200 C   0  0  0  0  0  0  0  0  0  0  0  0
   13.6100   12.2460   23.9060 C   0  0  0  0  0  0  0  0  0  0  0  0
   12.9510   13.5790   23.7500 C   0  0  0  0  0  0  0  0  0  0  0  0
   12.7580   14.1860   24.7690 O   0  0  0  0  0  0  0  0  0  0  0  0
   12.5890   14.0040   22.5020 N   0  0  0  0  0  0  0  0  0  0  0  0
   11.4950   14.9150   22.6380 C   0  0  1  0  0  0  0  0  0  0  0  0
   10.8010   15.1940   21.3150 C   0  0  0  0  0  0  0  0  0  0  0  0
    9.4320   15.5420   21.8010 C   0  0  0  0  0  0  0  0  0  0  0  0
    8.9050   14.1690   22.0420 C   0  0  0  0  0  0  0  0  0  0  0  0
    9.6150   13.3600   23.0180 N   0  0  0  0  0  0  0  0  0  0  0  0
    9.0490   12.2270   23.7220 C   0  0  0  0  0  0  0  0  0  0  0  0
    7.9950   12.2100   24.6150 C   0  0  0  0  0  0  0  0  0  0  0  0
    7.7800   10.7980   25.0830 C   0  0  0  0  0  0  0  0  0  0  0  0
    6.6930   10.4480   26.0810 C   0  0  0  0  0  0  0  0  0  0  0  0
    8.6510    9.9910   24.5050 N   0  0  0  0  0  0  0  0  0  0  0  0
    9.4010   10.8280   23.7030 N   0  0  0  0  0  0  0  0  0  0  0  0
   10.4350   10.1250   22.9750 C   0  0  0  0  0  0  0  0  0  0  0  0
   10.5710   14.1590   23.6380 C   0  0  0  0  0  0  0  0  0  0  0  0
   10.7150   14.3040   24.8490 O   0  0  0  0  0  0  0  0  0  0  0  0
   15.5040   12.8780   24.8780 H   0  0  0  0  0  0  0  0  0  0  0  0
   15.3790   11.0090   24.6290 H   0  0  0  0  0  0  0  0  0  0  0  0
   13.0650   11.3750   23.5740 H   0  0  0  0  0  0  0  0  0  0  0  0
   13.3430   14.3050   21.8890 H   0  0  0  0  0  0  0  0  0  0  0  0
   11.8790   15.7690   23.1740 H   0  0  0  0  0  0  0  0  0  0  0  0
   11.2830   15.9250   20.6700 H   0  0  0  0  0  0  0  0  0  0  0  0
   10.7430   14.2590   20.7460 H   0  0  0  0  0  0  0  0  0  0  0  0
    8.8600   16.0740   21.0310 H   0  0  0  0  0  0  0  0  0  0  0  0
    9.4630   16.1440   22.7140 H   0  0  0  0  0  0  0  0  0  0  0  0
    7.8360   14.2320   22.2520 H   0  0  0  0  0  0  0  0  0  0  0  0
    9.0950   13.7520   21.1010 H   0  0  0  0  0  0  0  0  0  0  0  0
    7.4180   13.0660   24.9300 H   0  0  0  0  0  0  0  0  0  0  0  0
    5.7310   10.3860   25.5720 H   0  0  0  0  0  0  0  0  0  0  0  0
    6.8980    9.4600   26.4930 H   0  0  0  0  0  0  0  0  0  0  0  0
    6.5590   11.1170   26.9270 H   0  0  0  0  0  0  0  0  0  0  0  0
    9.9990    9.5930   22.1280 H   0  0  0  0  0  0  0  0  0  0  0  0
   10.9090    9.3890   23.6270 H   0  0  0  0  0  0  0  0  0  0  0  0
   11.1530   10.8630   22.6220 H   0  0  0  0  0  0  0  0  0  0  0  0
  1  2  2  0
  2  3  1  0
  3  4  2  0
  3  5  1  0
  5  6  1  0
  6  7  1  0
  7  8  1  0
  8  9  1  0
  9 10  1  0
 10 11  1  0
 11 12  2  0
 12 13  1  0
 13 14  1  0
 13 15  2  0
 15 16  1  0
 16 17  1  0
 10 18  1  0
 18 19  2  0
 18  6  1  0
 16 11  1  0
  1 20  1  0
  1 21  1  0
  2 22  1  0
  5 23  1  0
  6 24  1  1
  7 25  1  0
  7 26  1  0
  8 27  1  0
  8 28  1  0
  9 29  1  0
  9 30  1  0
 12 31  1  0
 14 32  1  0
 14 33  1  0
 14 34  1  0
 17 35  1  0
 17 36  1  0
 17 37  1  0
A    1
 C1 
A    2
 C2 
A    3
 C3 
A    4
 O1 
A    5
 N1 
A    6
 C4 
A    7
 C5 
A    8
 C6 
A    9
 C7 
A   10
 N2 
A   11
 C8 
A   12
 C9 
A   13
 C10
A   14
 C11
A   15
 N3 
A   16
 N4 
A   17
 C12
A   18
 C13
A   19
 O2 
A   20
 H1 
A   21
 H2 
A   22
 H3 
A   23
 H4 
A   24
 H5 
A   25
 H6 
A   26
 H7 
A   27
 H8 
A   28
 H9 
A   29
 H10
A   30
 H11
A   31
 H12
A   32
 H13
A   33
 H14
A   34
 H15
A   35
 H16
A   36
 H17
A   37
 H18
M  END
>  <ref_pdb>  (23) 
x0451_0A

>  <ref_mols>  (23) 
x0451_0A,x0554_0A,x0556_0A,x0566_0A,x0310_0A,x0416_0A

>  <original SMILES>  (23) 
C=CC(=O)N[C@H]1CCCN(c2cc(C)nn2C)C1=O

>  <rationale>  (23) 
info info set:ROCS-electro;Warhead 2.9050525571837764Å to Cys110:SG; hbond:H21; hydroph_interaction:A110+L22; 

>  <∆∆G>  (23) 
-2.145743

>  <comRMSD>  (23) 
1.094221

>  <ROCS_TanimotoCombo>  (23) 
0.441

>  <ROCS_ShapeTanimoto>  (23) 
0.285

>  <ROCS_ColorTanimoto>  (23) 
0.156

>  <distance>  (23) 
2.905053

$$$$
Z4899906869
     RDKit          3D

 43 45  0  0  0  0  0  0  0  0999 V2000
   12.6420   10.5290   24.7530 C   0  0  0  0  0  0  0  0  0  0  0  0
   13.9610   11.1290   25.1030 C   0  0  0  0  0  0  0  0  0  0  0  0
   14.1210   12.4710   24.8770 C   0  0  0  0  0  0  0  0  0  0  0  0
   14.9730   13.0730   25.5330 O   0  0  0  0  0  0  0  0  0  0  0  0
   13.2580   12.9850   23.9000 N   0  0  0  0  0  0  0  0  0  0  0  0
   13.0050   14.3990   23.6460 C   0  0  0  0  0  0  0  0  0  0  0  0
   12.4920   14.6750   22.3870 C   0  0  0  0  0  0  0  0  0  0  0  0
   13.1030   15.3660   21.3740 C   0  0  0  0  0  0  0  0  0  0  0  0
   12.4620   15.5330   19.9790 C   0  0  0  0  0  0  0  0  0  0  0  0
   11.1110   14.9780   19.7490 C   0  0  0  0  0  0  0  0  0  0  0  0
   10.4740   14.2870   20.9240 C   0  0  0  0  0  0  0  0  0  0  0  0
   11.2930   14.2050   22.1790 C   0  0  0  0  0  0  0  0  0  0  0  0
   10.7040   13.5220   23.3280 C   0  0  0  0  0  0  0  0  0  0  0  0
   10.3570   14.1820   24.2980 O   0  0  0  0  0  0  0  0  0  0  0  0
   10.6550   12.1350   23.0860 N   0  0  0  0  0  0  0  0  0  0  0  0
    9.7460   11.4120   23.7610 C   0  0  0  0  0  0  0  0  0  0  0  0
    9.7830    9.9220   23.8810 C   0  0  0  0  0  0  0  0  0  0  0  0
    8.6850    9.3180   24.6890 C   0  0  0  0  0  0  0  0  0  0  0  0
    7.7130   10.1540   25.2630 C   0  0  0  0  0  0  0  0  0  0  0  0
    6.6470    9.7740   26.0150 O   0  0  0  0  0  0  0  0  0  0  0  0
    6.0180   10.9610   26.3230 C   0  0  0  0  0  0  0  0  0  0  0  0
    4.8070   10.9620   27.1220 C   0  0  0  0  0  0  0  0  0  0  0  0
    4.3220    9.7460   27.5470 N   0  0  0  0  0  0  0  0  0  0  0  0
    4.1760   11.9700   27.4320 O   0  0  0  0  0  0  0  0  0  0  0  0
    6.6060   12.0330   25.8300 N   0  0  0  0  0  0  0  0  0  0  0  0
    7.6740   11.5210   25.1560 C   0  0  0  0  0  0  0  0  0  0  0  0
    8.7510   12.1980   24.3570 C   0  0  0  0  0  0  0  0  0  0  0  0
   11.8650   11.1690   24.3370 H   0  0  0  0  0  0  0  0  0  0  0  0
   12.4180    9.4760   24.8980 H   0  0  0  0  0  0  0  0  0  0  0  0
   14.7730   10.5340   25.5180 H   0  0  0  0  0  0  0  0  0  0  0  0
   12.9480   12.3550   23.1740 H   0  0  0  0  0  0  0  0  0  0  0  0
   12.5130   14.7610   24.5420 H   0  0  0  0  0  0  0  0  0  0  0  0
   14.0050   14.7410   23.6270 H   0  0  0  0  0  0  0  0  0  0  0  0
   14.0620   15.7920   21.5360 H   0  0  0  0  0  0  0  0  0  0  0  0
   12.9390   16.0290   19.1750 H   0  0  0  0  0  0  0  0  0  0  0  0
   10.6010   15.0710   18.7840 H   0  0  0  0  0  0  0  0  0  0  0  0
    9.4840   13.8720   20.8540 H   0  0  0  0  0  0  0  0  0  0  0  0
   10.8660   11.8380   22.1320 H   0  0  0  0  0  0  0  0  0  0  0  0
   10.5420    9.2860   23.4290 H   0  0  0  0  0  0  0  0  0  0  0  0
    8.6510    8.2460   24.8230 H   0  0  0  0  0  0  0  0  0  0  0  0
    4.8990    8.9070   27.5850 H   0  0  0  0  0  0  0  0  0  0  0  0
    3.4550    9.7590   28.0630 H   0  0  0  0  0  0  0  0  0  0  0  0
    8.7280   13.2760   24.2670 H   0  0  0  0  0  0  0  0  0  0  0  0
  1  2  2  0
  2  3  1  0
  3  4  2  0
  3  5  1  0
  5  6  1  0
  6  7  1  0
  7  8  2  0
  8  9  1  0
  9 10  2  0
 10 11  1  0
 11 12  2  0
 12 13  1  0
 13 14  2  0
 13 15  1  0
 15 16  1  0
 16 17  2  0
 17 18  1  0
 18 19  2  0
 19 20  1  0
 20 21  1  0
 21 22  1  0
 22 23  1  0
 22 24  2  0
 21 25  2  0
 25 26  1  0
 26 27  2  0
 12  7  1  0
 27 16  1  0
 26 19  1  0
  1 28  1  0
  1 29  1  0
  2 30  1  0
  5 31  1  0
  6 32  1  0
  6 33  1  0
  8 34  1  0
  9 35  1  0
 10 36  1  0
 11 37  1  0
 15 38  1  0
 17 39  1  0
 18 40  1  0
 23 41  1  0
 23 42  1  0
 27 43  1  0
A    1
 C1 
A    2
 C2 
A    3
 C3 
A    4
 O1 
A    5
 N1 
A    6
 C4 
A    7
 C5 
A    8
 C6 
A    9
 C7 
A   10
 C8 
A   11
 C9 
A   12
 C10
A   13
 C11
A   14
 O2 
A   15
 N2 
A   16
 C12
A   17
 C13
A   18
 C14
A   19
 C15
A   20
 O3 
A   21
 C16
A   22
 C17
A   23
 N3 
A   24
 O4 
A   25
 N4 
A   26
 C18
A   27
 C19
A   28
 H1 
A   29
 H2 
A   30
 H3 
A   31
 H4 
A   32
 H5 
A   33
 H6 
A   34
 H7 
A   35
 H8 
A   36
 H9 
A   37
 H10
A   38
 H11
A   39
 H12
A   40
 H13
A   41
 H14
A   42
 H15
A   43
 H16
M  END
>  <ref_pdb>  (24) 
x0451_0A

>  <ref_mols>  (24) 
x0451_0A,x0554_0A,x0556_0A,x0566_0A,x0310_0A,x0416_0A

>  <original SMILES>  (24) 
C=CC(=O)NCc1ccccc1C(=O)Nc1ccc2oc(C(N)=O)nc2c1

>  <rationale>  (24) 
info info set:ROCS-cov2;Warhead 1.3292291337463247Å to Cys110:SG; hbond:S105+S125; hydroph_interaction:Y89+Y90+A110; 

>  <∆∆G>  (24) 
-2.142804

>  <comRMSD>  (24) 
0.879512

>  <ROCS_TanimotoCombo>  (24) 
0.533

>  <ROCS_ShapeTanimoto>  (24) 
0.354

>  <ROCS_ColorTanimoto>  (24) 
0.179

>  <distance>  (24) 
1.329229

$$$$
Z1479333050
     RDKit          3D

 42 43  0  0  0  0  0  0  0  0999 V2000
   14.6780   12.0570   24.4350 C   0  0  0  0  0  0  0  0  0  0  0  0
   13.3240   12.1510   23.7760 C   0  0  0  0  0  0  0  0  0  0  0  0
   12.8200   13.3960   23.3340 C   0  0  0  0  0  0  0  0  0  0  0  0
   12.7110   14.2380   24.1950 O   0  0  0  0  0  0  0  0  0  0  0  0
   12.4620   13.5960   22.0020 N   0  0  0  0  0  0  0  0  0  0  0  0
   11.8060   14.8130   21.5620 C   0  0  0  0  0  0  0  0  0  0  0  0
   10.5340   14.6270   22.0300 C   0  0  0  0  0  0  0  0  0  0  0  0
   10.3740   13.7870   23.3240 C   0  0  0  0  0  0  0  0  0  0  0  0
   10.3910   14.3100   24.4330 O   0  0  0  0  0  0  0  0  0  0  0  0
   10.2300   12.4120   23.1710 N   0  0  0  0  0  0  0  0  0  0  0  0
   10.1080   11.5600   24.3680 C   0  0  2  0  0  0  0  0  0  0  0  0
   10.5220   10.2770   24.0220 C   0  0  0  0  0  0  0  0  0  0  0  0
    9.4180    9.2810   23.6270 C   0  0  0  0  0  0  0  0  0  0  0  0
    8.2970    9.2650   24.5240 O   0  0  0  0  0  0  0  0  0  0  0  0
    7.9290   10.4740   25.0380 C   0  0  0  0  0  0  0  0  0  0  0  0
    6.5500   10.5440   25.6900 C   0  0  0  0  0  0  0  0  0  0  0  0
    6.1220   11.7370   26.2260 C   0  0  0  0  0  0  0  0  0  0  0  0
    4.9130   11.9510   26.8380 O   0  0  0  0  0  0  0  0  0  0  0  0
    4.3660   13.2580   26.7460 C   0  0  0  0  0  0  0  0  0  0  0  0
    6.9680   12.8470   26.1580 C   0  0  0  0  0  0  0  0  0  0  0  0
    8.2350   12.7830   25.5640 C   0  0  0  0  0  0  0  0  0  0  0  0
    8.7310   11.6030   24.9990 C   0  0  0  0  0  0  0  0  0  0  0  0
   15.2820   12.9580   24.5680 H   0  0  0  0  0  0  0  0  0  0  0  0
   15.0840   11.1090   24.7930 H   0  0  0  0  0  0  0  0  0  0  0  0
   12.6780   11.3040   23.6270 H   0  0  0  0  0  0  0  0  0  0  0  0
   12.2560   12.7730   21.4170 H   0  0  0  0  0  0  0  0  0  0  0  0
   12.3050   15.7190   21.9010 H   0  0  0  0  0  0  0  0  0  0  0  0
   11.9520   14.7950   20.4870 H   0  0  0  0  0  0  0  0  0  0  0  0
    9.9540   14.1610   21.2240 H   0  0  0  0  0  0  0  0  0  0  0  0
   10.0820   15.5940   22.2230 H   0  0  0  0  0  0  0  0  0  0  0  0
   10.5870   11.9890   22.3020 H   0  0  0  0  0  0  0  0  0  0  0  0
   10.7910   11.9770   25.1200 H   0  0  0  0  0  0  0  0  0  0  0  0
   11.2550    9.8630   24.7130 H   0  0  0  0  0  0  0  0  0  0  0  0
   11.1090   10.4610   23.1200 H   0  0  0  0  0  0  0  0  0  0  0  0
    9.0720    9.4770   22.6270 H   0  0  0  0  0  0  0  0  0  0  0  0
    9.7970    8.2560   23.6120 H   0  0  0  0  0  0  0  0  0  0  0  0
    5.9370    9.6550   25.7160 H   0  0  0  0  0  0  0  0  0  0  0  0
    4.7970   13.9180   27.5070 H   0  0  0  0  0  0  0  0  0  0  0  0
    3.2880   13.1780   26.9200 H   0  0  0  0  0  0  0  0  0  0  0  0
    4.5070   13.6690   25.7390 H   0  0  0  0  0  0  0  0  0  0  0  0
    6.6280   13.7980   26.5840 H   0  0  0  0  0  0  0  0  0  0  0  0
    8.8440   13.6900   25.5480 H   0  0  0  0  0  0  0  0  0  0  0  0
  1  2  2  0
  2  3  1  0
  3  4  2  0
  3  5  1  0
  5  6  1  0
  6  7  1  0
  7  8  1  0
  8  9  2  0
  8 10  1  0
 10 11  1  0
 11 12  1  0
 12 13  1  0
 13 14  1  0
 14 15  1  0
 15 16  2  0
 16 17  1  0
 17 18  1  0
 18 19  1  0
 17 20  2  0
 20 21  1  0
 21 22  2  0
 22 11  1  0
 22 15  1  0
  1 23  1  0
  1 24  1  0
  2 25  1  0
  5 26  1  0
  6 27  1  0
  6 28  1  0
  7 29  1  0
  7 30  1  0
 10 31  1  0
 11 32  1  1
 12 33  1  0
 12 34  1  0
 13 35  1  0
 13 36  1  0
 16 37  1  0
 19 38  1  0
 19 39  1  0
 19 40  1  0
 20 41  1  0
 21 42  1  0
A    1
 C1 
A    2
 C2 
A    3
 C3 
A    4
 O1 
A    5
 N1 
A    6
 C4 
A    7
 C5 
A    8
 C6 
A    9
 O2 
A   10
 N2 
A   11
 C7 
A   12
 C8 
A   13
 C9 
A   14
 O3 
A   15
 C10
A   16
 C11
A   17
 C12
A   18
 O4 
A   19
 C13
A   20
 C14
A   21
 C15
A   22
 C16
A   23
 H1 
A   24
 H2 
A   25
 H3 
A   26
 H4 
A   27
 H5 
A   28
 H6 
A   29
 H7 
A   30
 H8 
A   31
 H9 
A   32
 H10
A   33
 H11
A   34
 H12
A   35
 H13
A   36
 H14
A   37
 H15
A   38
 H16
A   39
 H17
A   40
 H18
A   41
 H19
A   42
 H20
M  END
>  <ref_pdb>  (25) 
x0451_0A

>  <ref_mols>  (25) 
x0451_0A,x0554_0A,x0556_0A,x0566_0A,x0310_0A,x0416_0A

>  <original SMILES>  (25) 
C=CC(=O)NCCC(=O)N[C@@H]1CCOc2cc(OC)ccc21

>  <rationale>  (25) 
info info set:ROCS-cov2;Warhead 2.1716044782602557Å to Cys110:SG; hbond:S125; hydroph_interaction:A110+L22; 

>  <∆∆G>  (25) 
-2.095414

>  <comRMSD>  (25) 
0.693666

>  <ROCS_TanimotoCombo>  (25) 
0.531

>  <ROCS_ShapeTanimoto>  (25) 
0.34

>  <ROCS_ColorTanimoto>  (25) 
0.191

>  <distance>  (25) 
2.171604

$$$$
Z2285377339
     RDKit          3D

 36 38  0  0  0  0  0  0  0  0999 V2000
   13.8780   11.8590   24.2550 C   0  0  0  0  0  0  0  0  0  0  0  0
   12.8130   12.1890   23.2460 C   0  0  0  0  0  0  0  0  0  0  0  0
   12.7480   13.6260   22.8040 C   0  0  0  0  0  0  0  0  0  0  0  0
   13.3010   14.3860   23.5310 O   0  0  0  0  0  0  0  0  0  0  0  0
   12.0240   14.0640   21.6940 N   0  0  0  0  0  0  0  0  0  0  0  0
   12.5510   14.2590   20.3150 C   0  0  0  0  0  0  0  0  0  0  0  0
   11.4810   14.8440   19.5660 C   0  0  0  0  0  0  0  0  0  0  0  0
   10.5000   15.3430   20.4140 C   0  0  0  0  0  0  0  0  0  0  0  0
   11.1720   15.2030   21.7980 C   0  0  1  0  0  0  0  0  0  0  0  0
   10.4260   14.6490   22.7940 C   0  0  0  0  0  0  0  0  0  0  0  0
    9.7900   15.3310   23.5650 O   0  0  0  0  0  0  0  0  0  0  0  0
   10.5310   13.2880   22.7720 N   0  0  0  0  0  0  0  0  0  0  0  0
    9.7330   12.4440   23.4640 C   0  0  0  0  0  0  0  0  0  0  0  0
    8.8090   12.9820   24.1890 N   0  0  0  0  0  0  0  0  0  0  0  0
    8.0870   12.0000   24.7870 C   0  0  0  0  0  0  0  0  0  0  0  0
    6.9230   12.2500   25.7000 C   0  0  0  0  0  0  0  0  0  0  0  0
    6.2770   11.0550   26.2240 C   0  0  0  0  0  0  0  0  0  0  0  0
    6.7340    9.8120   25.8830 C   0  0  0  0  0  0  0  0  0  0  0  0
    7.8320    9.6000   25.0340 C   0  0  0  0  0  0  0  0  0  0  0  0
    8.4830   10.6900   24.5060 C   0  0  0  0  0  0  0  0  0  0  0  0
    9.8360   10.7400   23.4510 S   0  0  0  0  0  0  0  0  0  0  0  0
   14.5700   12.6200   24.6290 H   0  0  0  0  0  0  0  0  0  0  0  0
   13.9800   10.8420   24.6450 H   0  0  0  0  0  0  0  0  0  0  0  0
   12.1040   11.4560   22.8660 H   0  0  0  0  0  0  0  0  0  0  0  0
   12.8520   13.3320   19.8370 H   0  0  0  0  0  0  0  0  0  0  0  0
   13.3640   14.9750   20.3160 H   0  0  0  0  0  0  0  0  0  0  0  0
   11.0240   14.0700   18.9360 H   0  0  0  0  0  0  0  0  0  0  0  0
   11.8780   15.6100   18.8910 H   0  0  0  0  0  0  0  0  0  0  0  0
    9.6160   14.7040   20.3710 H   0  0  0  0  0  0  0  0  0  0  0  0
   10.1220   16.3390   20.1900 H   0  0  0  0  0  0  0  0  0  0  0  0
   11.8060   16.0380   22.0890 H   0  0  0  0  0  0  0  0  0  0  0  0
   10.9640   12.8130   21.9710 H   0  0  0  0  0  0  0  0  0  0  0  0
    6.5910   13.2550   25.9430 H   0  0  0  0  0  0  0  0  0  0  0  0
    5.4270   11.2430   26.8860 H   0  0  0  0  0  0  0  0  0  0  0  0
    6.2120    8.9880   26.2980 H   0  0  0  0  0  0  0  0  0  0  0  0
    8.1640    8.5940   24.7940 H   0  0  0  0  0  0  0  0  0  0  0  0
  1  2  2  0
  2  3  1  0
  3  4  2  0
  3  5  1  0
  5  6  1  0
  6  7  1  0
  7  8  1  0
  8  9  1  0
  9 10  1  0
 10 11  2  0
 10 12  1  0
 12 13  1  0
 13 14  2  0
 14 15  1  0
 15 16  2  0
 16 17  1  0
 17 18  2  0
 18 19  1  0
 19 20  2  0
 20 21  1  0
  9  5  1  0
 21 13  1  0
 20 15  1  0
  1 22  1  0
  1 23  1  0
  2 24  1  0
  6 25  1  0
  6 26  1  0
  7 27  1  0
  7 28  1  0
  8 29  1  0
  8 30  1  0
  9 31  1  1
 12 32  1  0
 16 33  1  0
 17 34  1  0
 18 35  1  0
 19 36  1  0
A    1
 C1 
A    2
 C2 
A    3
 C3 
A    4
 O1 
A    5
 N1 
A    6
 C4 
A    7
 C5 
A    8
 C6 
A    9
 C7 
A   10
 C8 
A   11
 O2 
A   12
 N2 
A   13
 C9 
A   14
 N3 
A   15
 C10
A   16
 C11
A   17
 C12
A   18
 C13
A   19
 C14
A   20
 C15
A   21
 S1 
A   22
 H1 
A   23
 H2 
A   24
 H3 
A   25
 H4 
A   26
 H5 
A   27
 H6 
A   28
 H7 
A   29
 H8 
A   30
 H9 
A   31
 H10
A   32
 H11
A   33
 H12
A   34
 H13
A   35
 H14
A   36
 H15
M  END
>  <ref_pdb>  (26) 
x0451_0A

>  <ref_mols>  (26) 
x0451_0A,x0554_0A,x0556_0A,x0566_0A,x0310_0A,x0416_0A

>  <original SMILES>  (26) 
C=CC(=O)N1CCC[C@H]1C(=O)Nc1nc2ccccc2s1

>  <rationale>  (26) 
info info set:ROCS-electro;Warhead 1.8963953807157414Å to Cys110:SG; hbond:S87+S125; hydroph_interaction:A110; 

>  <∆∆G>  (26) 
-2.044398

>  <comRMSD>  (26) 
0.999528

>  <ROCS_TanimotoCombo>  (26) 
0.444

>  <ROCS_ShapeTanimoto>  (26) 
0.302

>  <ROCS_ColorTanimoto>  (26) 
0.142

>  <distance>  (26) 
1.896395

$$$$
Z3271412717
     RDKit          3D

 13 13  0  0  0  0  0  0  0  0999 V2000
   12.0460   12.1000   23.4320 C   0  0  0  0  0  0  0  0  0  0  0  0
   11.4690   10.8170   23.9890 C   0  0  0  0  0  0  0  0  0  0  0  0
    9.9790   10.6690   24.2290 C   0  0  0  0  0  0  0  0  0  0  0  0
    9.0670   11.8300   24.3060 C   0  0  0  0  0  0  0  0  0  0  0  0
    7.8310   11.2830   24.5420 C   0  0  0  0  0  0  0  0  0  0  0  0
    7.8750    9.9290   24.6120 N   0  0  0  0  0  0  0  0  0  0  0  0
    9.1830    9.5740   24.4200 N   0  0  0  0  0  0  0  0  0  0  0  0
   13.1200   12.1910   23.2670 H   0  0  0  0  0  0  0  0  0  0  0  0
   11.3820   12.9350   23.1930 H   0  0  0  0  0  0  0  0  0  0  0  0
   12.0770    9.9610   24.2460 H   0  0  0  0  0  0  0  0  0  0  0  0
    9.3190   12.8730   24.2040 H   0  0  0  0  0  0  0  0  0  0  0  0
    6.9250   11.8550   24.6600 H   0  0  0  0  0  0  0  0  0  0  0  0
    9.4340    8.5910   24.4380 H   0  0  0  0  0  0  0  0  0  0  0  0
  1  2  2  0
  2  3  1  0
  3  4  2  0
  4  5  1  0
  5  6  2  0
  6  7  1  0
  7  3  1  0
  1  8  1  0
  1  9  1  0
  2 10  1  0
  4 11  1  0
  5 12  1  0
  7 13  1  0
A    1
 C1 
A    2
 C2 
A    3
 C3 
A    4
 C4 
A    5
 C5 
A    6
 N1 
A    7
 N2 
A    8
 H1 
A    9
 H2 
A   10
 H3 
A   11
 H4 
A   12
 H5 
A   13
 H6 
M  END
>  <ref_pdb>  (27) 
x0451_0A

>  <ref_mols>  (27) 
x0451_0A,x0554_0A,x0556_0A,x0566_0A,x0310_0A,x0416_0A

>  <original SMILES>  (27) 
C=Cc1ccn[nH]1

>  <rationale>  (27) 
info info set:ROCS-quat;Warhead 2.189244778456717Å to Cys110:SG; hbond:E106; hydroph_interaction:A110; 

>  <∆∆G>  (27) 
-1.925236

>  <comRMSD>  (27) 
0.395046

>  <ROCS_TanimotoCombo>  (27) 
0.242

>  <ROCS_ShapeTanimoto>  (27) 
0.148

>  <ROCS_ColorTanimoto>  (27) 
0.094

>  <distance>  (27) 
2.189245

$$$$
Z2285378239
     RDKit          3D

 36 38  0  0  0  0  0  0  0  0999 V2000
   14.0340   12.1120   24.4230 C   0  0  0  0  0  0  0  0  0  0  0  0
   13.1840   13.1990   23.8950 C   0  0  0  0  0  0  0  0  0  0  0  0
   11.6990   13.0280   24.1020 C   0  0  0  0  0  0  0  0  0  0  0  0
   11.2550   12.8660   25.2270 O   0  0  0  0  0  0  0  0  0  0  0  0
   10.9120   13.1090   22.8890 N   0  0  0  0  0  0  0  0  0  0  0  0
    9.6210   13.3370   23.2250 C   0  0  0  0  0  0  0  0  0  0  0  0
    8.9430   12.1830   23.8620 C   0  0  0  0  0  0  0  0  0  0  0  0
    9.2510   10.9200   23.5750 N   0  0  0  0  0  0  0  0  0  0  0  0
    8.4670   10.0830   24.3380 N   0  0  0  0  0  0  0  0  0  0  0  0
    7.6990   10.8520   25.0730 C   0  0  0  0  0  0  0  0  0  0  0  0
    7.9640   12.1540   24.8020 N   0  0  0  0  0  0  0  0  0  0  0  0
    7.2630   13.2020   25.4720 C   0  0  0  0  0  0  0  0  0  0  0  0
    6.8170   12.7840   26.7220 C   0  0  0  0  0  0  0  0  0  0  0  0
    6.0990   11.5760   26.7350 C   0  0  0  0  0  0  0  0  0  0  0  0
    6.6710   10.4770   26.0730 C   0  0  0  0  0  0  0  0  0  0  0  0
    8.8280   14.1490   22.1440 C   0  0  0  0  0  0  0  0  0  0  0  0
    9.3380   15.3150   22.8970 C   0  0  0  0  0  0  0  0  0  0  0  0
    9.5790   14.6740   24.0850 C   0  0  0  0  0  0  0  0  0  0  0  0
   13.5810   11.2500   24.9200 H   0  0  0  0  0  0  0  0  0  0  0  0
   15.1190   12.1460   24.3260 H   0  0  0  0  0  0  0  0  0  0  0  0
   13.5160   14.0890   23.3890 H   0  0  0  0  0  0  0  0  0  0  0  0
   11.1230   12.4910   22.0960 H   0  0  0  0  0  0  0  0  0  0  0  0
    7.9240   14.0650   25.5840 H   0  0  0  0  0  0  0  0  0  0  0  0
    6.4060   13.4680   24.8410 H   0  0  0  0  0  0  0  0  0  0  0  0
    6.0770   13.5400   27.0180 H   0  0  0  0  0  0  0  0  0  0  0  0
    7.5640   12.8780   27.4980 H   0  0  0  0  0  0  0  0  0  0  0  0
    5.6930   11.3130   27.7070 H   0  0  0  0  0  0  0  0  0  0  0  0
    5.1920   11.8000   26.1600 H   0  0  0  0  0  0  0  0  0  0  0  0
    5.8720    9.9370   25.5600 H   0  0  0  0  0  0  0  0  0  0  0  0
    7.0960    9.7920   26.7980 H   0  0  0  0  0  0  0  0  0  0  0  0
    7.7470   14.0770   22.1860 H   0  0  0  0  0  0  0  0  0  0  0  0
    9.2000   14.1170   21.1150 H   0  0  0  0  0  0  0  0  0  0  0  0
   10.2500   15.7350   22.4580 H   0  0  0  0  0  0  0  0  0  0  0  0
    8.6120   16.1230   22.9700 H   0  0  0  0  0  0  0  0  0  0  0  0
   10.4990   14.9790   24.5930 H   0  0  0  0  0  0  0  0  0  0  0  0
    8.7510   14.7620   24.7940 H   0  0  0  0  0  0  0  0  0  0  0  0
  1  2  2  0
  2  3  1  0
  3  4  2  0
  3  5  1  0
  5  6  1  0
  6  7  1  0
  7  8  2  0
  8  9  1  0
  9 10  2  0
 10 11  1  0
 11 12  1  0
 12 13  1  0
 13 14  1  0
 14 15  1  0
  6 16  1  0
 16 17  1  0
 17 18  1  0
 18  6  1  0
 11  7  1  0
 15 10  1  0
  1 19  1  0
  1 20  1  0
  2 21  1  0
  5 22  1  0
 12 23  1  0
 12 24  1  0
 13 25  1  0
 13 26  1  0
 14 27  1  0
 14 28  1  0
 15 29  1  0
 15 30  1  0
 16 31  1  0
 16 32  1  0
 17 33  1  0
 17 34  1  0
 18 35  1  0
 18 36  1  0
A    1
 C1 
A    2
 C2 
A    3
 C3 
A    4
 O1 
A    5
 N1 
A    6
 C4 
A    7
 C5 
A    8
 N2 
A    9
 N3 
A   10
 C6 
A   11
 N4 
A   12
 C7 
A   13
 C8 
A   14
 C9 
A   15
 C10
A   16
 C11
A   17
 C12
A   18
 C13
A   19
 H1 
A   20
 H2 
A   21
 H3 
A   22
 H4 
A   23
 H5 
A   24
 H6 
A   25
 H7 
A   26
 H8 
A   27
 H9 
A   28
 H10
A   29
 H11
A   30
 H12
A   31
 H13
A   32
 H14
A   33
 H15
A   34
 H16
A   35
 H17
A   36
 H18
M  END
>  <ref_pdb>  (28) 
x0451_0A

>  <ref_mols>  (28) 
x0451_0A,x0554_0A,x0556_0A,x0566_0A,x0310_0A,x0416_0A

>  <original SMILES>  (28) 
C=CC(=O)NC1(c2nnc3n2CCCC3)CCC1

>  <rationale>  (28) 
info info set:ROCS-electro;Warhead 2.3886799911248056Å to Cys110:SG; hbond:S125; hydroph_interaction:Y89+A110; 

>  <∆∆G>  (28) 
-1.913763

>  <comRMSD>  (28) 
1.309032

>  <ROCS_TanimotoCombo>  (28) 
0.451

>  <ROCS_ShapeTanimoto>  (28) 
0.278

>  <ROCS_ColorTanimoto>  (28) 
0.173

>  <distance>  (28) 
2.38868

$$$$
Z4425282832
     RDKit          3D

 56 58  0  0  0  0  0  0  0  0999 V2000
   14.1290   11.7170   24.8170 C   0  0  0  0  0  0  0  0  0  0  0  0
   12.8580   11.8320   24.0090 C   0  0  0  0  0  0  0  0  0  0  0  0
   12.5040   13.0920   23.4520 C   0  0  0  0  0  0  0  0  0  0  0  0
   12.9690   14.0610   24.0260 O   0  0  0  0  0  0  0  0  0  0  0  0
   11.6620   13.1870   22.3380 N   0  0  0  0  0  0  0  0  0  0  0  0
   11.1820   14.4890   21.8750 C   0  0  0  0  0  0  0  0  0  0  0  0
   10.3430   15.0480   22.7970 C   0  0  0  0  0  0  0  0  0  0  0  0
   10.3970   14.7970   24.1590 N   0  0  0  0  0  0  0  0  0  0  0  0
   10.3090   13.5230   24.6900 C   0  0  0  0  0  0  0  0  0  0  0  0
   10.7560   13.2320   25.7930 O   0  0  0  0  0  0  0  0  0  0  0  0
    9.6760   12.6260   23.8720 C   0  0  1  0  0  0  0  0  0  0  0  0
   10.0090   11.2920   24.1430 C   0  0  0  0  0  0  0  0  0  0  0  0
    8.8530   10.3180   24.4080 C   0  0  0  0  0  0  0  0  0  0  0  0
    7.7950   10.8910   25.1560 C   0  0  0  0  0  0  0  0  0  0  0  0
    7.0550   10.0150   26.1230 C   0  0  0  0  0  0  0  0  0  0  0  0
    6.0310   10.5380   26.8420 C   0  0  0  0  0  0  0  0  0  0  0  0
    5.6190   11.9880   26.7050 C   0  0  0  0  0  0  0  0  0  0  0  0
    6.4040   12.8040   25.7300 C   0  0  0  0  0  0  0  0  0  0  0  0
    7.4570   12.2160   24.9970 C   0  0  0  0  0  0  0  0  0  0  0  0
    8.2030   12.9250   24.0780 C   0  0  0  0  0  0  0  0  0  0  0  0
   10.3680   14.4610   20.5260 C   0  0  0  0  0  0  0  0  0  0  0  0
   10.4550   15.5760   19.4700 C   0  0  0  0  0  0  0  0  0  0  0  0
   11.6030   15.4840   18.7040 C   0  0  0  0  0  0  0  0  0  0  0  0
   12.7100   15.2000   19.4430 C   0  0  0  0  0  0  0  0  0  0  0  0
   12.6890   16.0090   20.7090 C   0  0  0  0  0  0  0  0  0  0  0  0
   12.3910   15.3870   21.8670 C   0  0  0  0  0  0  0  0  0  0  0  0
   14.7680   12.5920   24.9670 H   0  0  0  0  0  0  0  0  0  0  0  0
   14.4420   10.7710   25.2650 H   0  0  0  0  0  0  0  0  0  0  0  0
   12.1880   11.0060   23.8260 H   0  0  0  0  0  0  0  0  0  0  0  0
   11.6110   12.4330   21.6550 H   0  0  0  0  0  0  0  0  0  0  0  0
    9.3340   14.6950   22.5590 H   0  0  0  0  0  0  0  0  0  0  0  0
   10.2710   16.1270   22.7300 H   0  0  0  0  0  0  0  0  0  0  0  0
   10.6990   15.5670   24.7420 H   0  0  0  0  0  0  0  0  0  0  0  0
    9.7740   12.8640   22.8180 H   0  0  0  0  0  0  0  0  0  0  0  0
   10.8400   11.1930   24.8380 H   0  0  0  0  0  0  0  0  0  0  0  0
   10.4570   10.9050   23.2090 H   0  0  0  0  0  0  0  0  0  0  0  0
    8.4100   10.0960   23.4360 H   0  0  0  0  0  0  0  0  0  0  0  0
    9.1690    9.3360   24.7550 H   0  0  0  0  0  0  0  0  0  0  0  0
    7.3990    9.0090   26.1760 H   0  0  0  0  0  0  0  0  0  0  0  0
    5.5420    9.8280   27.5210 H   0  0  0  0  0  0  0  0  0  0  0  0
    4.7940   12.4170   27.2840 H   0  0  0  0  0  0  0  0  0  0  0  0
    6.1580   13.8580   25.5840 H   0  0  0  0  0  0  0  0  0  0  0  0
    8.1250   13.9740   24.3930 H   0  0  0  0  0  0  0  0  0  0  0  0
    7.6900   12.8890   23.1080 H   0  0  0  0  0  0  0  0  0  0  0  0
    9.3150   14.3180   20.7740 H   0  0  0  0  0  0  0  0  0  0  0  0
   10.6720   13.5860   19.9730 H   0  0  0  0  0  0  0  0  0  0  0  0
    9.5800   15.5890   18.8140 H   0  0  0  0  0  0  0  0  0  0  0  0
   10.4620   16.5500   19.9790 H   0  0  0  0  0  0  0  0  0  0  0  0
   11.4570   14.6970   17.9510 H   0  0  0  0  0  0  0  0  0  0  0  0
   11.7650   16.4150   18.1470 H   0  0  0  0  0  0  0  0  0  0  0  0
   13.5930   15.4540   18.8640 H   0  0  0  0  0  0  0  0  0  0  0  0
   12.7570   14.1260   19.6490 H   0  0  0  0  0  0  0  0  0  0  0  0
   11.9580   16.8020   20.6100 H   0  0  0  0  0  0  0  0  0  0  0  0
   13.6810   16.4500   20.8320 H   0  0  0  0  0  0  0  0  0  0  0  0
   13.2640   14.8650   22.2550 H   0  0  0  0  0  0  0  0  0  0  0  0
   12.1860   16.1870   22.5770 H   0  0  0  0  0  0  0  0  0  0  0  0
  1  2  2  0
  2  3  1  0
  3  4  2  0
  3  5  1  0
  5  6  1  0
  6  7  1  0
  7  8  1  0
  8  9  1  0
  9 10  2  0
  9 11  1  0
 11 12  1  0
 12 13  1  0
 13 14  1  0
 14 15  2  0
 15 16  1  0
 16 17  2  0
 17 18  1  0
 18 19  2  0
 19 20  1  0
  6 21  1  0
 21 22  1  0
 22 23  1  0
 23 24  1  0
 24 25  1  0
 25 26  1  0
 26  6  1  0
 20 11  1  0
 19 14  1  0
  1 27  1  0
  1 28  1  0
  2 29  1  0
  5 30  1  0
  7 31  1  0
  7 32  1  0
  8 33  1  0
 11 34  1  6
 12 35  1  0
 12 36  1  0
 13 37  1  0
 13 38  1  0
 15 39  1  0
 16 40  1  0
 17 41  1  0
 18 42  1  0
 20 43  1  0
 20 44  1  0
 21 45  1  0
 21 46  1  0
 22 47  1  0
 22 48  1  0
 23 49  1  0
 23 50  1  0
 24 51  1  0
 24 52  1  0
 25 53  1  0
 25 54  1  0
 26 55  1  0
 26 56  1  0
A    1
 C1 
A    2
 C2 
A    3
 C3 
A    4
 O1 
A    5
 N1 
A    6
 C4 
A    7
 C5 
A    8
 N2 
A    9
 C6 
A   10
 O2 
A   11
 C7 
A   12
 C8 
A   13
 C9 
A   14
 C10
A   15
 C11
A   16
 C12
A   17
 C13
A   18
 C14
A   19
 C15
A   20
 C16
A   21
 C17
A   22
 C18
A   23
 C19
A   24
 C20
A   25
 C21
A   26
 C22
A   27
 H1 
A   28
 H2 
A   29
 H3 
A   30
 H4 
A   31
 H5 
A   32
 H6 
A   33
 H7 
A   34
 H8 
A   35
 H9 
A   36
 H10
A   37
 H11
A   38
 H12
A   39
 H13
A   40
 H14
A   41
 H15
A   42
 H16
A   43
 H17
A   44
 H18
A   45
 H19
A   46
 H20
A   47
 H21
A   48
 H22
A   49
 H23
A   50
 H24
A   51
 H25
A   52
 H26
A   53
 H27
A   54
 H28
A   55
 H29
A   56
 H30
M  END
>  <ref_pdb>  (29) 
x0451_0A

>  <ref_mols>  (29) 
x0451_0A,x0554_0A,x0556_0A,x0566_0A,x0310_0A,x0416_0A

>  <original SMILES>  (29) 
C=CC(=O)NC1(CNC(=O)[C@H]2CCc3ccccc3C2)CCCCCC1

>  <rationale>  (29) 
info info set:ROCS-cov2;Warhead 1.6416752723970713Å to Cys110:SG; hbond:S125; hydroph_interaction:Y89+Y90+A110; 

>  <∆∆G>  (29) 
-1.831405

>  <comRMSD>  (29) 
1.635296

>  <ROCS_TanimotoCombo>  (29) 
0.525

>  <ROCS_ShapeTanimoto>  (29) 
0.345

>  <ROCS_ColorTanimoto>  (29) 
0.18

>  <distance>  (29) 
1.641675

$$$$
Z1255458872
     RDKit          3D

 12 12  0  0  0  0  0  0  0  0999 V2000
   10.8370    9.5530   22.7550 C   0  0  0  0  0  0  0  0  0  0  0  0
    9.5870    9.1590   23.3840 C   0  0  0  0  0  0  0  0  0  0  0  0
    8.8900   10.1260   24.0370 C   0  0  0  0  0  0  0  0  0  0  0  0
    7.8280    9.9150   24.7950 N   0  0  0  0  0  0  0  0  0  0  0  0
    7.3020   11.1420   25.3630 C   0  0  0  0  0  0  0  0  0  0  0  0
    8.1000   12.2400   24.9280 C   0  0  0  0  0  0  0  0  0  0  0  0
    9.3780   11.7370   23.9090 S   0  0  0  0  0  0  0  0  0  0  0  0
   11.4260    8.8370   22.2360 H   0  0  0  0  0  0  0  0  0  0  0  0
   11.1770   10.5920   22.8130 H   0  0  0  0  0  0  0  0  0  0  0  0
    9.1790    8.1510   23.3680 H   0  0  0  0  0  0  0  0  0  0  0  0
    6.4330   11.1540   26.0080 H   0  0  0  0  0  0  0  0  0  0  0  0
    7.9690   13.2830   25.1740 H   0  0  0  0  0  0  0  0  0  0  0  0
  1  2  2  0
  2  3  1  0
  3  4  2  0
  4  5  1  0
  5  6  2  0
  6  7  1  0
  7  3  1  0
  1  8  1  0
  1  9  1  0
  2 10  1  0
  5 11  1  0
  6 12  1  0
A    1
 C1 
A    2
 C2 
A    3
 C3 
A    4
 N1 
A    5
 C4 
A    6
 C5 
A    7
 S1 
A    8
 H1 
A    9
 H2 
A   10
 H3 
A   11
 H4 
A   12
 H5 
M  END
>  <ref_pdb>  (30) 
x0451_0A

>  <ref_mols>  (30) 
x0451_0A,x0554_0A,x0556_0A,x0566_0A,x0310_0A,x0416_0A

>  <original SMILES>  (30) 
C=Cc1nccs1

>  <rationale>  (30) 
info info set:ROCS-quat;Warhead 2.786335505641773Å to Cys110:SG; hydroph_interaction:A110+V124; 

>  <∆∆G>  (30) 
-1.792399

>  <comRMSD>  (30) 
0.651084

>  <ROCS_TanimotoCombo>  (30) 
0.234

>  <ROCS_ShapeTanimoto>  (30) 
0.152

>  <ROCS_ColorTanimoto>  (30) 
0.082

>  <distance>  (30) 
2.786336

$$$$
Z4425211095
     RDKit          3D

 54 56  0  0  0  0  0  0  0  0999 V2000
   10.6190   10.0550   22.8690 C   0  0  0  0  0  0  0  0  0  0  0  0
    9.6350   10.7920   23.7270 C   0  0  0  0  0  0  0  0  0  0  0  0
    8.6490    9.9010   24.2420 O   0  0  0  0  0  0  0  0  0  0  0  0
    7.7950   10.6280   25.0340 N   0  0  0  0  0  0  0  0  0  0  0  0
    8.2740   11.9300   24.9850 C   0  0  0  0  0  0  0  0  0  0  0  0
    7.4620   12.9130   25.8510 C   0  0  0  0  0  0  0  0  0  0  0  0
    6.8310   13.6490   24.6240 C   0  0  0  0  0  0  0  0  0  0  0  0
    5.5800   13.8860   25.2300 C   0  0  0  0  0  0  0  0  0  0  0  0
    5.3320   12.9500   26.4010 C   0  0  0  0  0  0  0  0  0  0  0  0
    6.3860   12.1450   26.6180 C   0  0  0  0  0  0  0  0  0  0  0  0
    9.4130   12.0940   24.1720 C   0  0  0  0  0  0  0  0  0  0  0  0
   10.1680   13.3130   23.8970 C   0  0  0  0  0  0  0  0  0  0  0  0
   10.8880   13.7880   24.7670 O   0  0  0  0  0  0  0  0  0  0  0  0
   10.0250   13.9320   22.7010 N   0  0  0  0  0  0  0  0  0  0  0  0
   10.8470   14.9520   22.3620 C   0  0  0  0  0  0  0  0  0  0  0  0
   11.8130   14.5220   21.4700 C   0  0  0  0  0  0  0  0  0  0  0  0
   12.5120   13.3330   22.0440 N   0  0  0  0  0  0  0  0  0  0  0  0
   12.8300   13.2170   23.4050 C   0  0  0  0  0  0  0  0  0  0  0  0
   12.7740   14.1520   24.1740 O   0  0  0  0  0  0  0  0  0  0  0  0
   13.2440   11.9820   23.8850 C   0  0  0  0  0  0  0  0  0  0  0  0
   13.7400   12.0920   25.5890 Cl  0  0  0  0  0  0  0  0  0  0  0  0
   11.0660   14.1880   20.1540 C   0  0  0  0  0  0  0  0  0  0  0  0
   10.7900   15.2810   19.3520 C   0  0  0  0  0  0  0  0  0  0  0  0
   12.0540   15.6340   18.6630 C   0  0  0  0  0  0  0  0  0  0  0  0
   13.0580   15.2940   19.5740 C   0  0  0  0  0  0  0  0  0  0  0  0
   12.7460   15.6300   21.0240 C   0  0  0  0  0  0  0  0  0  0  0  0
   11.3470   10.7620   22.4870 H   0  0  0  0  0  0  0  0  0  0  0  0
   11.1700    9.3160   23.4590 H   0  0  0  0  0  0  0  0  0  0  0  0
   10.1320    9.5460   22.0380 H   0  0  0  0  0  0  0  0  0  0  0  0
    7.9810   13.5530   26.5620 H   0  0  0  0  0  0  0  0  0  0  0  0
    7.3710   14.5130   24.2460 H   0  0  0  0  0  0  0  0  0  0  0  0
    6.7710   13.0000   23.7550 H   0  0  0  0  0  0  0  0  0  0  0  0
    4.7710   13.7860   24.5040 H   0  0  0  0  0  0  0  0  0  0  0  0
    5.5380   14.9270   25.5730 H   0  0  0  0  0  0  0  0  0  0  0  0
    5.1280   13.5020   27.3230 H   0  0  0  0  0  0  0  0  0  0  0  0
    4.4350   12.3490   26.2090 H   0  0  0  0  0  0  0  0  0  0  0  0
    6.5720   12.0220   27.6900 H   0  0  0  0  0  0  0  0  0  0  0  0
    6.1940   11.1560   26.1820 H   0  0  0  0  0  0  0  0  0  0  0  0
    9.1460   13.9090   22.2040 H   0  0  0  0  0  0  0  0  0  0  0  0
   11.2560   15.4110   23.2600 H   0  0  0  0  0  0  0  0  0  0  0  0
   10.1190   15.7000   22.0750 H   0  0  0  0  0  0  0  0  0  0  0  0
   12.2690   12.4540   21.5770 H   0  0  0  0  0  0  0  0  0  0  0  0
   14.1380   11.7160   23.3470 H   0  0  0  0  0  0  0  0  0  0  0  0
   12.5190   11.1650   23.8290 H   0  0  0  0  0  0  0  0  0  0  0  0
   11.7270   13.5820   19.5320 H   0  0  0  0  0  0  0  0  0  0  0  0
   10.2430   13.5600   20.4360 H   0  0  0  0  0  0  0  0  0  0  0  0
   10.4160   16.1310   19.9460 H   0  0  0  0  0  0  0  0  0  0  0  0
   10.0150   15.0200   18.6170 H   0  0  0  0  0  0  0  0  0  0  0  0
   12.1530   15.0410   17.7470 H   0  0  0  0  0  0  0  0  0  0  0  0
   12.0360   16.6730   18.3730 H   0  0  0  0  0  0  0  0  0  0  0  0
   13.1440   14.2070   19.5210 H   0  0  0  0  0  0  0  0  0  0  0  0
   14.0080   15.6370   19.2720 H   0  0  0  0  0  0  0  0  0  0  0  0
   13.6520   15.6510   21.6290 H   0  0  0  0  0  0  0  0  0  0  0  0
   12.2580   16.6060   21.1020 H   0  0  0  0  0  0  0  0  0  0  0  0
  1  2  1  0
  2  3  1  0
  3  4  1  0
  4  5  2  0
  5  6  1  0
  6  7  1  0
  7  8  1  0
  8  9  1  0
  9 10  1  0
  5 11  1  0
 11 12  1  0
 12 13  2  0
 12 14  1  0
 14 15  1  0
 15 16  1  0
 16 17  1  0
 17 18  1  0
 18 19  2  0
 18 20  1  0
 20 21  1  0
 16 22  1  0
 22 23  1  0
 23 24  1  0
 24 25  1  0
 25 26  1  0
 11  2  2  0
 26 16  1  0
 10  6  1  0
  1 27  1  0
  1 28  1  0
  1 29  1  0
  6 30  1  0
  7 31  1  0
  7 32  1  0
  8 33  1  0
  8 34  1  0
  9 35  1  0
  9 36  1  0
 10 37  1  0
 10 38  1  0
 14 39  1  0
 15 40  1  0
 15 41  1  0
 17 42  1  0
 20 43  1  0
 20 44  1  0
 22 45  1  0
 22 46  1  0
 23 47  1  0
 23 48  1  0
 24 49  1  0
 24 50  1  0
 25 51  1  0
 25 52  1  0
 26 53  1  0
 26 54  1  0
A    1
 C1 
A    2
 C2 
A    3
 O1 
A    4
 N1 
A    5
 C3 
A    6
 C4 
A    7
 C5 
A    8
 C6 
A    9
 C7 
A   10
 C8 
A   11
 C9 
A   12
 C10
A   13
 O2 
A   14
 N2 
A   15
 C11
A   16
 C12
A   17
 N3 
A   18
 C13
A   19
 O3 
A   20
 C14
A   21
CL1 
A   22
 C15
A   23
 C16
A   24
 C17
A   25
 C18
A   26
 C19
A   27
 H1 
A   28
 H2 
A   29
 H3 
A   30
 H4 
A   31
 H5 
A   32
 H6 
A   33
 H7 
A   34
 H8 
A   35
 H9 
A   36
 H10
A   37
 H11
A   38
 H12
A   39
 H13
A   40
 H14
A   41
 H15
A   42
 H16
A   43
 H17
A   44
 H18
A   45
 H19
A   46
 H20
A   47
 H21
A   48
 H22
A   49
 H23
A   50
 H24
A   51
 H25
A   52
 H26
A   53
 H27
A   54
 H28
M  END
>  <ref_pdb>  (31) 
x0451_0A

>  <ref_mols>  (31) 
x0451_0A,x0554_0A,x0556_0A,x0566_0A,x0310_0A,x0416_0A

>  <original SMILES>  (31) 
Cc1onc(C2CCCC2)c1C(=O)NCC1(NC(=O)CCl)CCCCC1

>  <rationale>  (31) 
info info set:ROCS-cov2;Warhead 1.438766530747779Å to Cys110:SG; hbond:S125+T126; hydroph_interaction:Y89+Y90+A110; 

>  <∆∆G>  (31) 
-1.665454

>  <comRMSD>  (31) 
0.940257

>  <ROCS_TanimotoCombo>  (31) 
0.532

>  <ROCS_ShapeTanimoto>  (31) 
0.345

>  <ROCS_ColorTanimoto>  (31) 
0.186

>  <distance>  (31) 
1.438767

$$$$
Z2867490857
     RDKit          3D

 34 36  0  0  0  0  0  0  0  0999 V2000
   14.6130   11.6950   25.8580 C   0  0  0  0  0  0  0  0  0  0  0  0
   14.3670   11.9590   24.3860 C   0  0  0  0  0  0  0  0  0  0  0  0
   13.0480   12.6920   24.2100 C   0  0  0  0  0  0  0  0  0  0  0  0
   12.7640   13.5810   24.9600 O   0  0  0  0  0  0  0  0  0  0  0  0
   12.1710   12.3540   23.2280 N   0  0  0  0  0  0  0  0  0  0  0  0
   11.4540   13.3620   22.4630 C   0  0  0  0  0  0  0  0  0  0  0  0
   10.8700   14.2650   23.4590 C   0  0  0  0  0  0  0  0  0  0  0  0
    9.5980   13.9720   23.9850 C   0  0  0  0  0  0  0  0  0  0  0  0
    9.3160   12.6130   24.2310 C   0  0  0  0  0  0  0  0  0  0  0  0
   10.0750   11.4570   23.9560 C   0  0  0  0  0  0  0  0  0  0  0  0
    9.3780   10.3850   24.3630 N   0  0  0  0  0  0  0  0  0  0  0  0
    8.2210   10.7810   24.9040 C   0  0  0  0  0  0  0  0  0  0  0  0
    7.2850    9.9900   25.4220 C   0  0  0  0  0  0  0  0  0  0  0  0
    7.6020    8.7470   25.3480 F   0  0  0  0  0  0  0  0  0  0  0  0
    6.1130   10.4710   25.9790 C   0  0  0  0  0  0  0  0  0  0  0  0
    5.8940   11.8470   25.9990 C   0  0  0  0  0  0  0  0  0  0  0  0
    6.8530   12.7260   25.4530 C   0  0  0  0  0  0  0  0  0  0  0  0
    8.1230   12.1360   24.8590 C   0  0  0  0  0  0  0  0  0  0  0  0
   11.3770   11.1590   23.3640 C   0  0  0  0  0  0  0  0  0  0  0  0
   15.5230   11.1790   26.1810 H   0  0  0  0  0  0  0  0  0  0  0  0
   13.8910   12.0110   26.6220 H   0  0  0  0  0  0  0  0  0  0  0  0
   15.0350   11.6810   23.6080 H   0  0  0  0  0  0  0  0  0  0  0  0
   12.1140   13.8650   21.7520 H   0  0  0  0  0  0  0  0  0  0  0  0
   10.6550   12.8750   21.9350 H   0  0  0  0  0  0  0  0  0  0  0  0
   10.8410   15.2820   23.0530 H   0  0  0  0  0  0  0  0  0  0  0  0
   11.5800   14.3380   24.2860 H   0  0  0  0  0  0  0  0  0  0  0  0
    8.8290   14.4000   23.3420 H   0  0  0  0  0  0  0  0  0  0  0  0
    9.4230   14.5450   24.8940 H   0  0  0  0  0  0  0  0  0  0  0  0
    9.6680    9.4180   24.2860 H   0  0  0  0  0  0  0  0  0  0  0  0
    5.3790    9.7730   26.3950 H   0  0  0  0  0  0  0  0  0  0  0  0
    4.9790   12.2470   26.4330 H   0  0  0  0  0  0  0  0  0  0  0  0
    6.6840   13.7990   25.4630 H   0  0  0  0  0  0  0  0  0  0  0  0
   11.2190   10.7070   22.3940 H   0  0  0  0  0  0  0  0  0  0  0  0
   11.8800   10.4050   23.9710 H   0  0  0  0  0  0  0  0  0  0  0  0
  1  2  2  0
  2  3  1  0
  3  4  2  0
  3  5  1  0
  5  6  1  0
  6  7  1  0
  7  8  1  0
  8  9  1  0
  9 10  2  0
 10 11  1  0
 11 12  1  0
 12 13  2  0
 13 14  1  0
 13 15  1  0
 15 16  2  0
 16 17  1  0
 17 18  2  0
 10 19  1  0
 19  5  1  0
 18  9  1  0
 18 12  1  0
  1 20  1  0
  1 21  1  0
  2 22  1  0
  6 23  1  0
  6 24  1  0
  7 25  1  0
  7 26  1  0
  8 27  1  0
  8 28  1  0
 11 29  1  0
 15 30  1  0
 16 31  1  0
 17 32  1  0
 19 33  1  0
 19 34  1  0
A    1
 C1 
A    2
 C2 
A    3
 C3 
A    4
 O1 
A    5
 N1 
A    6
 C4 
A    7
 C5 
A    8
 C6 
A    9
 C7 
A   10
 C8 
A   11
 N2 
A   12
 C9 
A   13
 C10
A   14
 F1 
A   15
 C11
A   16
 C12
A   17
 C13
A   18
 C14
A   19
 C15
A   20
 H1 
A   21
 H2 
A   22
 H3 
A   23
 H4 
A   24
 H5 
A   25
 H6 
A   26
 H7 
A   27
 H8 
A   28
 H9 
A   29
 H10
A   30
 H11
A   31
 H12
A   32
 H13
A   33
 H14
A   34
 H15
M  END
>  <ref_pdb>  (32) 
x0451_0A

>  <ref_mols>  (32) 
x0451_0A,x0554_0A,x0556_0A,x0566_0A,x0310_0A,x0416_0A

>  <original SMILES>  (32) 
C=CC(=O)N1CCCc2c([nH]c3c(F)cccc23)C1

>  <rationale>  (32) 
info info set:ROCS-electro;Warhead 2.3297887651029665Å to Cys110:SG; hydroph_interaction:A110; 

>  <∆∆G>  (32) 
-1.551763

>  <comRMSD>  (32) 
0.768583

>  <ROCS_TanimotoCombo>  (32) 
0.408

>  <ROCS_ShapeTanimoto>  (32) 
0.305

>  <ROCS_ColorTanimoto>  (32) 
0.103

>  <distance>  (32) 
2.329789

$$$$
Z2499129286
     RDKit          3D

 57 60  0  0  0  0  0  0  0  0999 V2000
   15.7520   10.2990   25.2930 C   0  0  0  0  0  0  0  0  0  0  0  0
   15.8350   11.6140   25.9160 C   0  0  0  0  0  0  0  0  0  0  0  0
   14.6910   12.5250   26.2580 C   0  0  0  0  0  0  0  0  0  0  0  0
   14.8300   13.2770   27.2080 O   0  0  0  0  0  0  0  0  0  0  0  0
   13.5590   12.4250   25.4380 N   0  0  0  0  0  0  0  0  0  0  0  0
   12.6020   13.4750   25.4420 C   0  0  0  0  0  0  0  0  0  0  0  0
   12.7460   14.2070   24.2480 C   0  0  0  0  0  0  0  0  0  0  0  0
   12.0800   13.7150   23.2240 C   0  0  0  0  0  0  0  0  0  0  0  0
   10.8250   13.6290   23.5530 C   0  0  0  0  0  0  0  0  0  0  0  0
   10.2720   13.6480   24.7930 O   0  0  0  0  0  0  0  0  0  0  0  0
   10.0920   13.5490   22.3560 N   0  0  0  0  0  0  0  0  0  0  0  0
    8.7510   13.5250   22.6920 C   0  0  0  0  0  0  0  0  0  0  0  0
    8.5820   12.2780   23.5490 C   0  0  0  0  0  0  0  0  0  0  0  0
    9.2430   11.0370   23.4460 C   0  0  0  0  0  0  0  0  0  0  0  0
    8.7540   10.1820   24.4220 N   0  0  0  0  0  0  0  0  0  0  0  0
    7.8540   10.9160   25.0650 C   0  0  0  0  0  0  0  0  0  0  0  0
    7.7560   12.1830   24.5530 N   0  0  0  0  0  0  0  0  0  0  0  0
    6.8990   13.2590   25.0060 C   0  0  0  0  0  0  0  0  0  0  0  0
    6.1700   12.9070   26.1540 C   0  0  0  0  0  0  0  0  0  0  0  0
    6.5980   11.8320   26.9260 C   0  0  0  0  0  0  0  0  0  0  0  0
    6.9890   10.5610   26.1910 C   0  0  0  0  0  0  0  0  0  0  0  0
   11.9170   14.6110   21.9360 C   0  0  0  0  0  0  0  0  0  0  0  0
   11.2730   15.8570   21.9830 C   0  0  0  0  0  0  0  0  0  0  0  0
   11.0910   16.6250   20.8240 C   0  0  0  0  0  0  0  0  0  0  0  0
   11.5560   16.1810   19.5960 C   0  0  0  0  0  0  0  0  0  0  0  0
   12.1960   14.9830   19.5310 C   0  0  0  0  0  0  0  0  0  0  0  0
   12.3510   14.2270   20.6830 C   0  0  0  0  0  0  0  0  0  0  0  0
   12.6090   12.2830   23.0640 C   0  0  0  0  0  0  0  0  0  0  0  0
   13.5700   11.7560   24.1650 C   0  0  0  0  0  0  0  0  0  0  0  0
   14.7880    9.8690   25.0330 H   0  0  0  0  0  0  0  0  0  0  0  0
   16.6580    9.7200   25.0830 H   0  0  0  0  0  0  0  0  0  0  0  0
   16.8180   11.9910   26.1610 H   0  0  0  0  0  0  0  0  0  0  0  0
   12.6780   14.1010   26.3310 H   0  0  0  0  0  0  0  0  0  0  0  0
   11.6240   12.9890   25.4900 H   0  0  0  0  0  0  0  0  0  0  0  0
   13.7510   14.4310   23.9570 H   0  0  0  0  0  0  0  0  0  0  0  0
   12.2260   15.1300   24.4450 H   0  0  0  0  0  0  0  0  0  0  0  0
   10.4390   12.8820   21.6530 H   0  0  0  0  0  0  0  0  0  0  0  0
    8.1480   13.6930   21.8220 H   0  0  0  0  0  0  0  0  0  0  0  0
    8.5850   14.3930   23.3440 H   0  0  0  0  0  0  0  0  0  0  0  0
   10.0060   10.7260   22.7450 H   0  0  0  0  0  0  0  0  0  0  0  0
    6.3550   13.5820   24.1220 H   0  0  0  0  0  0  0  0  0  0  0  0
    7.5680   14.0820   25.2780 H   0  0  0  0  0  0  0  0  0  0  0  0
    6.1030   13.7960   26.7970 H   0  0  0  0  0  0  0  0  0  0  0  0
    5.1390   12.6960   25.8430 H   0  0  0  0  0  0  0  0  0  0  0  0
    7.4530   12.1760   27.5030 H   0  0  0  0  0  0  0  0  0  0  0  0
    5.8230   11.5840   27.6550 H   0  0  0  0  0  0  0  0  0  0  0  0
    7.5110    9.8720   26.8260 H   0  0  0  0  0  0  0  0  0  0  0  0
    6.0870   10.0480   25.8280 H   0  0  0  0  0  0  0  0  0  0  0  0
   10.8940   16.2390   22.9280 H   0  0  0  0  0  0  0  0  0  0  0  0
   10.5800   17.5820   20.8810 H   0  0  0  0  0  0  0  0  0  0  0  0
   11.4150   16.7740   18.6980 H   0  0  0  0  0  0  0  0  0  0  0  0
   12.5710   14.6120   18.5810 H   0  0  0  0  0  0  0  0  0  0  0  0
   12.8290   13.2880   20.5550 H   0  0  0  0  0  0  0  0  0  0  0  0
   13.1160   12.1920   22.1010 H   0  0  0  0  0  0  0  0  0  0  0  0
   11.7640   11.5830   23.0100 H   0  0  0  0  0  0  0  0  0  0  0  0
   14.5810   11.7960   23.7600 H   0  0  0  0  0  0  0  0  0  0  0  0
   13.3490   10.7110   24.3940 H   0  0  0  0  0  0  0  0  0  0  0  0
  1  2  2  0
  2  3  1  0
  3  4  2  0
  3  5  1  0
  5  6  1  0
  6  7  1  0
  7  8  1  0
  8  9  1  0
  9 10  2  0
  9 11  1  0
 11 12  1  0
 12 13  1  0
 13 14  2  0
 14 15  1  0
 15 16  2  0
 16 17  1  0
 17 18  1  0
 18 19  1  0
 19 20  1  0
 20 21  1  0
  8 22  1  0
 22 23  2  0
 23 24  1  0
 24 25  2  0
 25 26  1  0
 26 27  2  0
  8 28  1  0
 28 29  1  0
 29  5  1  0
 17 13  1  0
 27 22  1  0
 21 16  1  0
  1 30  1  0
  1 31  1  0
  2 32  1  0
  6 33  1  0
  6 34  1  0
  7 35  1  0
  7 36  1  0
 11 37  1  0
 12 38  1  0
 12 39  1  0
 14 40  1  0
 18 41  1  0
 18 42  1  0
 19 43  1  0
 19 44  1  0
 20 45  1  0
 20 46  1  0
 21 47  1  0
 21 48  1  0
 23 49  1  0
 24 50  1  0
 25 51  1  0
 26 52  1  0
 27 53  1  0
 28 54  1  0
 28 55  1  0
 29 56  1  0
 29 57  1  0
A    1
 C1 
A    2
 C2 
A    3
 C3 
A    4
 O1 
A    5
 N1 
A    6
 C4 
A    7
 C5 
A    8
 C6 
A    9
 C7 
A   10
 O2 
A   11
 N2 
A   12
 C8 
A   13
 C9 
A   14
 C10
A   15
 N3 
A   16
 C11
A   17
 N4 
A   18
 C12
A   19
 C13
A   20
 C14
A   21
 C15
A   22
 C16
A   23
 C17
A   24
 C18
A   25
 C19
A   26
 C20
A   27
 C21
A   28
 C22
A   29
 C23
A   30
 H1 
A   31
 H2 
A   32
 H3 
A   33
 H4 
A   34
 H5 
A   35
 H6 
A   36
 H7 
A   37
 H8 
A   38
 H9 
A   39
 H10
A   40
 H11
A   41
 H12
A   42
 H13
A   43
 H14
A   44
 H15
A   45
 H16
A   46
 H17
A   47
 H18
A   48
 H19
A   49
 H20
A   50
 H21
A   51
 H22
A   52
 H23
A   53
 H24
A   54
 H25
A   55
 H26
A   56
 H27
A   57
 H28
M  END
>  <ref_pdb>  (33) 
x0451_0A

>  <ref_mols>  (33) 
x0451_0A,x0554_0A,x0556_0A,x0566_0A,x0310_0A,x0416_0A

>  <original SMILES>  (33) 
C=CC(=O)N1CCC(C(=O)NCc2cnc3n2CCCC3)(c2ccccc2)CC1

>  <rationale>  (33) 
info info set:ROCS-cov2;Warhead 2.7817485328476423Å to Cys110:SG; hbond:S125; hydroph_interaction:Y89+Y90+P107+L22+T126; 

>  <∆∆G>  (33) 
-1.491308

>  <comRMSD>  (33) 
1.008273

>  <ROCS_TanimotoCombo>  (33) 
0.536

>  <ROCS_ShapeTanimoto>  (33) 
0.35

>  <ROCS_ColorTanimoto>  (33) 
0.186

>  <distance>  (33) 
2.781749

$$$$
Z46107650
     RDKit          3D

 63 66  0  0  0  0  0  0  0  0999 V2000
   14.9430   18.9830   18.9630 C   0  0  0  0  0  0  0  0  0  0  0  0
   14.6160   17.8470   18.1870 O   0  0  0  0  0  0  0  0  0  0  0  0
   13.6510   16.9970   18.6810 C   0  0  0  0  0  0  0  0  0  0  0  0
   13.7000   16.4740   20.1190 C   0  0  0  0  0  0  0  0  0  0  0  0
   12.5630   15.5420   20.4610 C   0  0  0  0  0  0  0  0  0  0  0  0
   11.5600   15.2710   19.3920 C   0  0  0  0  0  0  0  0  0  0  0  0
   10.5420   14.4450   19.6940 C   0  0  0  0  0  0  0  0  0  0  0  0
   10.2670   14.2760   21.1790 C   0  0  0  0  0  0  0  0  0  0  0  0
   11.2600   13.6930   21.9040 N   0  0  0  0  0  0  0  0  0  0  0  0
   11.4300   14.1010   23.2820 C   0  0  0  0  0  0  0  0  0  0  0  0
   10.9700   15.3410   23.8840 O   0  0  0  0  0  0  0  0  0  0  0  0
   12.0980   13.1690   24.2370 C   0  0  0  0  0  0  0  0  0  0  0  0
   13.4580   13.0340   24.3730 C   0  0  0  0  0  0  0  0  0  0  0  0
   14.5800   12.8140   24.5770 N   0  0  0  0  0  0  0  0  0  0  0  0
   11.3430   12.2690   25.1480 C   0  0  0  0  0  0  0  0  0  0  0  0
    9.9910   12.0350   25.3590 C   0  0  0  0  0  0  0  0  0  0  0  0
    9.0390   12.9860   26.0490 C   0  0  0  0  0  0  0  0  0  0  0  0
    7.6160   12.4860   26.2140 C   0  0  0  0  0  0  0  0  0  0  0  0
    6.6710   13.2620   26.8390 C   0  0  0  0  0  0  0  0  0  0  0  0
    5.3740   12.7950   27.0130 C   0  0  0  0  0  0  0  0  0  0  0  0
    5.0180   11.5050   26.5450 C   0  0  0  0  0  0  0  0  0  0  0  0
    5.9660   10.7220   25.9040 C   0  0  0  0  0  0  0  0  0  0  0  0
    7.3030   11.2100   25.7180 C   0  0  0  0  0  0  0  0  0  0  0  0
    8.1820   10.4460   25.1000 N   0  0  0  0  0  0  0  0  0  0  0  0
    9.4450   10.8580   24.9440 C   0  0  0  0  0  0  0  0  0  0  0  0
   10.2860   10.0230   24.3280 N   0  0  0  0  0  0  0  0  0  0  0  0
   10.7720   10.5350   23.0720 C   0  0  0  0  0  0  0  0  0  0  0  0
   10.8150    9.3490   22.1420 C   0  0  0  0  0  0  0  0  0  0  0  0
   10.9610    8.1210   22.7630 O   0  0  0  0  0  0  0  0  0  0  0  0
    9.6360    7.9540   23.1030 C   0  0  0  0  0  0  0  0  0  0  0  0
    9.6840    8.7290   24.3310 C   0  0  0  0  0  0  0  0  0  0  0  0
   11.6170   15.8060   18.1430 C   0  0  0  0  0  0  0  0  0  0  0  0
   12.6280   16.6460   17.7830 C   0  0  0  0  0  0  0  0  0  0  0  0
   12.6530   17.1640   16.5250 O   0  0  0  0  0  0  0  0  0  0  0  0
   11.5230   16.8690   15.7090 C   0  0  0  0  0  0  0  0  0  0  0  0
   14.3120   18.9570   19.8410 H   0  0  0  0  0  0  0  0  0  0  0  0
   15.9880   19.0030   19.2760 H   0  0  0  0  0  0  0  0  0  0  0  0
   14.7370   19.9160   18.4310 H   0  0  0  0  0  0  0  0  0  0  0  0
   14.4480   16.7240   20.8110 H   0  0  0  0  0  0  0  0  0  0  0  0
   12.4820   15.0910   21.4510 H   0  0  0  0  0  0  0  0  0  0  0  0
   10.6230   13.5220   19.1500 H   0  0  0  0  0  0  0  0  0  0  0  0
    9.6580   14.9580   19.3070 H   0  0  0  0  0  0  0  0  0  0  0  0
    9.3980   13.6830   21.2890 H   0  0  0  0  0  0  0  0  0  0  0  0
    9.9640   15.0570   21.7980 H   0  0  0  0  0  0  0  0  0  0  0  0
   11.5260   12.7780   21.5680 H   0  0  0  0  0  0  0  0  0  0  0  0
   12.0100   11.6680   25.7610 H   0  0  0  0  0  0  0  0  0  0  0  0
    9.3480   13.9690   26.4230 H   0  0  0  0  0  0  0  0  0  0  0  0
    6.9280   14.2500   27.2120 H   0  0  0  0  0  0  0  0  0  0  0  0
    4.6320   13.4160   27.5120 H   0  0  0  0  0  0  0  0  0  0  0  0
    4.0070   11.1730   26.7040 H   0  0  0  0  0  0  0  0  0  0  0  0
    5.7140    9.7370   25.5350 H   0  0  0  0  0  0  0  0  0  0  0  0
   10.0800   11.2890   22.7230 H   0  0  0  0  0  0  0  0  0  0  0  0
   11.7570   10.9930   23.1780 H   0  0  0  0  0  0  0  0  0  0  0  0
   11.5540    9.3910   21.3800 H   0  0  0  0  0  0  0  0  0  0  0  0
    9.8740    9.2670   21.6400 H   0  0  0  0  0  0  0  0  0  0  0  0
    9.3800    6.9020   23.2490 H   0  0  0  0  0  0  0  0  0  0  0  0
    8.9950    8.3830   22.3490 H   0  0  0  0  0  0  0  0  0  0  0  0
    8.8240    8.5890   24.9890 H   0  0  0  0  0  0  0  0  0  0  0  0
   10.5380    8.3170   24.7840 H   0  0  0  0  0  0  0  0  0  0  0  0
   10.8330   15.5430   17.4400 H   0  0  0  0  0  0  0  0  0  0  0  0
   11.7660   16.9680   14.6470 H   0  0  0  0  0  0  0  0  0  0  0  0
   10.7380   17.5950   15.9420 H   0  0  0  0  0  0  0  0  0  0  0  0
   11.1240   15.8820   15.9290 H   0  0  0  0  0  0  0  0  0  0  0  0
  1  2  1  0
  2  3  1  0
  3  4  2  0
  4  5  1  0
  5  6  2  0
  6  7  1  0
  7  8  1  0
  8  9  1  0
  9 10  1  0
 10 11  2  0
 10 12  1  0
 12 13  1  0
 13 14  3  0
 12 15  2  3
 15 16  1  0
 16 17  2  0
 17 18  1  0
 18 19  2  0
 19 20  1  0
 20 21  2  0
 21 22  1  0
 22 23  2  0
 23 24  1  0
 24 25  2  0
 25 26  1  0
 26 27  1  0
 27 28  1  0
 28 29  1  0
 29 30  1  0
 30 31  1  0
  6 32  1  0
 32 33  2  0
 33 34  1  0
 34 35  1  0
 33  3  1  0
 25 16  1  0
 31 26  1  0
 23 18  1  0
  1 36  1  0
  1 37  1  0
  1 38  1  0
  4 39  1  0
  5 40  1  0
  7 41  1  0
  7 42  1  0
  8 43  1  0
  8 44  1  0
  9 45  1  0
 15 46  1  0
 17 47  1  0
 19 48  1  0
 20 49  1  0
 21 50  1  0
 22 51  1  0
 27 52  1  0
 27 53  1  0
 28 54  1  0
 28 55  1  0
 30 56  1  0
 30 57  1  0
 31 58  1  0
 31 59  1  0
 32 60  1  0
 35 61  1  0
 35 62  1  0
 35 63  1  0
A    1
 C1 
A    2
 O1 
A    3
 C2 
A    4
 C3 
A    5
 C4 
A    6
 C5 
A    7
 C6 
A    8
 C7 
A    9
 N1 
A   10
 C8 
A   11
 O2 
A   12
 C9 
A   13
 C10
A   14
 N2 
A   15
 C11
A   16
 C12
A   17
 C13
A   18
 C14
A   19
 C15
A   20
 C16
A   21
 C17
A   22
 C18
A   23
 C19
A   24
 N3 
A   25
 C20
A   26
 N4 
A   27
 C21
A   28
 C22
A   29
 O3 
A   30
 C23
A   31
 C24
A   32
 C25
A   33
 C26
A   34
 O4 
A   35
 C27
A   36
 H1 
A   37
 H2 
A   38
 H3 
A   39
 H4 
A   40
 H5 
A   41
 H6 
A   42
 H7 
A   43
 H8 
A   44
 H9 
A   45
 H10
A   46
 H11
A   47
 H12
A   48
 H13
A   49
 H14
A   50
 H15
A   51
 H16
A   52
 H17
A   53
 H18
A   54
 H19
A   55
 H20
A   56
 H21
A   57
 H22
A   58
 H23
A   59
 H24
A   60
 H25
A   61
 H26
A   62
 H27
A   63
 H28
M  END
>  <ref_pdb>  (34) 
x0451_0A

>  <ref_mols>  (34) 
x0451_0A,x0554_0A,x0556_0A,x0566_0A,x0310_0A,x0416_0A

>  <original SMILES>  (34) 
COc1ccc(CCNC(=O)C(C#N)=Cc2cc3ccccc3nc2N2CCOCC2)cc1OC

>  <rationale>  (34) 
info info set:ROCS-cov2;Warhead 2.633553147365741Å to Cys110:SG; hbond:S87+S125+R93; hydroph_interaction:Y89+Y90+P107+D39+H21; 

>  <∆∆G>  (34) 
-1.354404

>  <comRMSD>  (34) 
1.347087

>  <ROCS_TanimotoCombo>  (34) 
0.529

>  <ROCS_ShapeTanimoto>  (34) 
0.361

>  <ROCS_ColorTanimoto>  (34) 
0.168

>  <distance>  (34) 
2.633553

$$$$
Z1174898756
     RDKit          3D

 45 46  0  0  0  0  0  0  0  0999 V2000
   16.2720   10.6880   25.6670 C   0  0  0  0  0  0  0  0  0  0  0  0
   15.0400   11.5270   25.3860 C   0  0  0  0  0  0  0  0  0  0  0  0
   14.8250   12.7180   26.3070 C   0  0  0  0  0  0  0  0  0  0  0  0
   15.7670   13.1810   26.9740 O   0  0  0  0  0  0  0  0  0  0  0  0
   13.5110   13.2080   26.2950 N   0  0  0  0  0  0  0  0  0  0  0  0
   13.0660   14.2950   27.1690 C   0  0  0  0  0  0  0  0  0  0  0  0
   12.3270   15.2260   26.4270 C   0  0  0  0  0  0  0  0  0  0  0  0
   11.9100   15.0280   25.0790 N   0  0  0  0  0  0  0  0  0  0  0  0
   12.5220   14.3230   24.0420 C   0  0  0  0  0  0  0  0  0  0  0  0
   13.4470   13.5260   24.0910 O   0  0  0  0  0  0  0  0  0  0  0  0
   12.0600   14.4890   22.7340 C   0  0  0  0  0  0  0  0  0  0  0  0
   11.1960   13.4250   22.5390 C   0  0  0  0  0  0  0  0  0  0  0  0
   10.3240   13.1470   23.5820 C   0  0  0  0  0  0  0  0  0  0  0  0
   10.1880   14.0070   24.4600 O   0  0  0  0  0  0  0  0  0  0  0  0
    9.6120   11.9550   23.6680 N   0  0  0  0  0  0  0  0  0  0  0  0
   10.4100   10.7360   23.4420 C   0  0  0  0  0  0  0  0  0  0  0  0
    9.6870    9.4570   23.4580 C   0  0  0  0  0  0  0  0  0  0  0  0
   10.0180    8.4890   22.7820 O   0  0  0  0  0  0  0  0  0  0  0  0
    8.6100    9.3820   24.2820 N   0  0  0  0  0  0  0  0  0  0  0  0
    8.0450   10.5090   24.8600 C   0  0  0  0  0  0  0  0  0  0  0  0
    6.8810   10.2800   25.8300 C   0  0  0  0  0  0  0  0  0  0  0  0
    6.3090   11.5440   26.4150 C   0  0  0  0  0  0  0  0  0  0  0  0
    6.8340   12.7780   26.0690 C   0  0  0  0  0  0  0  0  0  0  0  0
    7.9060   12.8940   25.1730 C   0  0  0  0  0  0  0  0  0  0  0  0
    8.5190   11.7910   24.5670 C   0  0  0  0  0  0  0  0  0  0  0  0
   16.4990    9.8120   25.0480 H   0  0  0  0  0  0  0  0  0  0  0  0
   16.9620   10.9300   26.4820 H   0  0  0  0  0  0  0  0  0  0  0  0
   14.3440   11.3050   24.5810 H   0  0  0  0  0  0  0  0  0  0  0  0
   12.9060   12.9840   25.5140 H   0  0  0  0  0  0  0  0  0  0  0  0
   13.9330   14.6320   27.7290 H   0  0  0  0  0  0  0  0  0  0  0  0
   12.4000   13.8450   27.9080 H   0  0  0  0  0  0  0  0  0  0  0  0
   11.3970   15.3560   26.9920 H   0  0  0  0  0  0  0  0  0  0  0  0
   12.8200   16.2000   26.4740 H   0  0  0  0  0  0  0  0  0  0  0  0
   11.0120   15.4270   24.8450 H   0  0  0  0  0  0  0  0  0  0  0  0
   12.8580   14.4700   22.0060 H   0  0  0  0  0  0  0  0  0  0  0  0
   11.6770   15.4750   22.5030 H   0  0  0  0  0  0  0  0  0  0  0  0
   11.8290   12.5420   22.4160 H   0  0  0  0  0  0  0  0  0  0  0  0
   10.6390   13.5960   21.6160 H   0  0  0  0  0  0  0  0  0  0  0  0
   11.1810   10.6630   24.2180 H   0  0  0  0  0  0  0  0  0  0  0  0
   10.9070   10.8310   22.4820 H   0  0  0  0  0  0  0  0  0  0  0  0
    8.0010    8.5990   24.1180 H   0  0  0  0  0  0  0  0  0  0  0  0
    6.5700    9.2540   26.0100 H   0  0  0  0  0  0  0  0  0  0  0  0
    5.4780   11.4870   27.1130 H   0  0  0  0  0  0  0  0  0  0  0  0
    6.4070   13.6790   26.5010 H   0  0  0  0  0  0  0  0  0  0  0  0
    8.2450   13.9030   24.9690 H   0  0  0  0  0  0  0  0  0  0  0  0
  1  2  2  0
  2  3  1  0
  3  4  2  0
  3  5  1  0
  5  6  1  0
  6  7  1  0
  7  8  1  0
  8  9  1  0
  9 10  2  0
  9 11  1  0
 11 12  1  0
 12 13  1  0
 13 14  2  0
 13 15  1  0
 15 16  1  0
 16 17  1  0
 17 18  2  0
 17 19  1  0
 19 20  1  0
 20 21  2  0
 21 22  1  0
 22 23  2  0
 23 24  1  0
 24 25  2  0
 25 15  1  0
 25 20  1  0
  1 26  1  0
  1 27  1  0
  2 28  1  0
  5 29  1  0
  6 30  1  0
  6 31  1  0
  7 32  1  0
  7 33  1  0
  8 34  1  0
 11 35  1  0
 11 36  1  0
 12 37  1  0
 12 38  1  0
 16 39  1  0
 16 40  1  0
 19 41  1  0
 21 42  1  0
 22 43  1  0
 23 44  1  0
 24 45  1  0
A    1
 C1 
A    2
 C2 
A    3
 C3 
A    4
 O1 
A    5
 N1 
A    6
 C4 
A    7
 C5 
A    8
 N2 
A    9
 C6 
A   10
 O2 
A   11
 C7 
A   12
 C8 
A   13
 C9 
A   14
 O3 
A   15
 N3 
A   16
 C10
A   17
 C11
A   18
 O4 
A   19
 N4 
A   20
 C12
A   21
 C13
A   22
 C14
A   23
 C15
A   24
 C16
A   25
 C17
A   26
 H1 
A   27
 H2 
A   28
 H3 
A   29
 H4 
A   30
 H5 
A   31
 H6 
A   32
 H7 
A   33
 H8 
A   34
 H9 
A   35
 H10
A   36
 H11
A   37
 H12
A   38
 H13
A   39
 H14
A   40
 H15
A   41
 H16
A   42
 H17
A   43
 H18
A   44
 H19
A   45
 H20
M  END
>  <ref_pdb>  (35) 
x0451_0A

>  <ref_mols>  (35) 
x0451_0A,x0554_0A,x0556_0A,x0566_0A,x0310_0A,x0416_0A

>  <original SMILES>  (35) 
C=CC(=O)NCCNC(=O)CCC(=O)N1CC(=O)Nc2ccccc21

>  <rationale>  (35) 
info info set:ROCS-cov2;Warhead 2.800194139698175Å to Cys110:SG; hbond:S105; hydroph_interaction:Y89+A110+L22; 

>  <∆∆G>  (35) 
-1.264306

>  <comRMSD>  (35) 
0.826666

>  <ROCS_TanimotoCombo>  (35) 
0.537

>  <ROCS_ShapeTanimoto>  (35) 
0.356

>  <ROCS_ColorTanimoto>  (35) 
0.181

>  <distance>  (35) 
2.800194

$$$$
Z3756437706
     RDKit          3D

 46 48  0  0  0  0  0  0  0  0999 V2000
   14.9550   11.3590   25.2410 C   0  0  0  0  0  0  0  0  0  0  0  0
   13.6700   11.7320   24.4950 C   0  0  0  0  0  0  0  0  0  0  0  0
   13.7140   13.2100   24.2300 C   0  0  0  0  0  0  0  0  0  0  0  0
   14.6510   13.7750   24.6770 O   0  0  0  0  0  0  0  0  0  0  0  0
   12.5970   13.7970   23.4480 N   0  0  0  0  0  0  0  0  0  0  0  0
   12.9200   14.9880   22.7040 C   0  0  0  0  0  0  0  0  0  0  0  0
   11.6770   15.8180   22.6330 C   0  0  0  0  0  0  0  0  0  0  0  0
   10.5660   15.1500   21.9780 C   0  0  0  0  0  0  0  0  0  0  0  0
   10.6150   13.7670   22.1660 C   0  0  2  0  0  0  0  0  0  0  0  0
    9.8420   13.5220   23.4300 C   0  0  0  0  0  0  0  0  0  0  0  0
    9.6390   14.4740   24.1830 O   0  0  0  0  0  0  0  0  0  0  0  0
    9.4140   12.2330   23.7220 N   0  0  0  0  0  0  0  0  0  0  0  0
   10.1070   10.9010   23.5300 C   0  0  0  0  0  0  0  0  0  0  0  0
    9.3420    9.8640   24.0670 C   0  0  0  0  0  0  0  0  0  0  0  0
    8.3030   10.6350   24.8200 C   0  0  0  0  0  0  0  0  0  0  0  0
    7.3220    9.9470   25.7040 C   0  0  0  0  0  0  0  0  0  0  0  0
    6.3270   10.8830   26.3850 C   0  0  0  0  0  0  0  0  0  0  0  0
    4.9900   10.1720   27.5160 Br  0  0  0  0  0  0  0  0  0  0  0  0
    6.4660   12.2520   26.1300 C   0  0  0  0  0  0  0  0  0  0  0  0
    5.3540   13.3270   26.9450 S   0  0  0  0  0  6  0  0  0  0  0  0
    5.9600   13.2230   28.5130 N   0  0  0  0  0  0  0  0  0  0  0  0
    4.0440   12.7090   27.0250 O   0  0  0  0  0  0  0  0  0  0  0  0
    5.5480   14.6830   26.4980 O   0  0  0  0  0  0  0  0  0  0  0  0
    7.4300   12.8060   25.2850 C   0  0  0  0  0  0  0  0  0  0  0  0
    8.3530   11.9870   24.6190 C   0  0  0  0  0  0  0  0  0  0  0  0
   11.9220   13.0380   22.4790 C   0  0  0  0  0  0  0  0  0  0  0  0
   15.1600   10.3340   25.5340 H   0  0  0  0  0  0  0  0  0  0  0  0
   15.6980   12.1240   25.4920 H   0  0  0  0  0  0  0  0  0  0  0  0
   12.8900   11.0370   24.2170 H   0  0  0  0  0  0  0  0  0  0  0  0
   13.0610   14.6770   21.6760 H   0  0  0  0  0  0  0  0  0  0  0  0
   13.8700   15.2770   23.0420 H   0  0  0  0  0  0  0  0  0  0  0  0
   11.4280   16.2990   23.5620 H   0  0  0  0  0  0  0  0  0  0  0  0
   11.9100   16.6440   21.9570 H   0  0  0  0  0  0  0  0  0  0  0  0
    9.6120   15.5360   22.3610 H   0  0  0  0  0  0  0  0  0  0  0  0
   10.5840   15.3670   20.9020 H   0  0  0  0  0  0  0  0  0  0  0  0
   10.1670   13.3850   21.2870 H   0  0  0  0  0  0  0  0  0  0  0  0
   11.0640   10.9570   24.0590 H   0  0  0  0  0  0  0  0  0  0  0  0
   10.3340   10.7070   22.4820 H   0  0  0  0  0  0  0  0  0  0  0  0
    8.9100    9.2330   23.2860 H   0  0  0  0  0  0  0  0  0  0  0  0
    9.9380    9.2540   24.7500 H   0  0  0  0  0  0  0  0  0  0  0  0
    7.3200    8.8950   25.8460 H   0  0  0  0  0  0  0  0  0  0  0  0
    5.9730   12.2470   28.8120 H   0  0  0  0  0  0  0  0  0  0  0  0
    5.4220   13.8370   29.1250 H   0  0  0  0  0  0  0  0  0  0  0  0
    7.4600   13.8830   25.1450 H   0  0  0  0  0  0  0  0  0  0  0  0
   11.7600   12.0110   22.8050 H   0  0  0  0  0  0  0  0  0  0  0  0
   12.5770   12.9840   21.6090 H   0  0  0  0  0  0  0  0  0  0  0  0
  1  2  2  0
  2  3  1  0
  3  4  2  0
  3  5  1  0
  5  6  1  0
  6  7  1  0
  7  8  1  0
  8  9  1  0
  9 10  1  0
 10 11  2  0
 10 12  1  0
 12 13  1  0
 13 14  1  0
 14 15  1  0
 15 16  2  0
 16 17  1  0
 17 18  1  0
 17 19  2  0
 19 20  1  0
 20 21  1  0
 20 22  2  0
 20 23  2  0
 19 24  1  0
 24 25  2  0
  9 26  1  0
 26  5  1  0
 25 12  1  0
 25 15  1  0
  1 27  1  0
  1 28  1  0
  2 29  1  0
  6 30  1  0
  6 31  1  0
  7 32  1  0
  7 33  1  0
  8 34  1  0
  8 35  1  0
  9 36  1  6
 13 37  1  0
 13 38  1  0
 14 39  1  0
 14 40  1  0
 16 41  1  0
 21 42  1  0
 21 43  1  0
 24 44  1  0
 26 45  1  0
 26 46  1  0
A    1
 C1 
A    2
 C2 
A    3
 C3 
A    4
 O1 
A    5
 N1 
A    6
 C4 
A    7
 C5 
A    8
 C6 
A    9
 C7 
A   10
 C8 
A   11
 O2 
A   12
 N2 
A   13
 C9 
A   14
 C10
A   15
 C11
A   16
 C12
A   17
 C13
A   18
BR1 
A   19
 C14
A   20
 S1 
A   21
 N3 
A   22
 O3 
A   23
 O4 
A   24
 C15
A   25
 C16
A   26
 C17
A   27
 H1 
A   28
 H2 
A   29
 H3 
A   30
 H4 
A   31
 H5 
A   32
 H6 
A   33
 H7 
A   34
 H8 
A   35
 H9 
A   36
 H10
A   37
 H11
A   38
 H12
A   39
 H13
A   40
 H14
A   41
 H15
A   42
 H16
A   43
 H17
A   44
 H18
A   45
 H19
A   46
 H20
M  END
>  <ref_pdb>  (36) 
x0451_0A

>  <ref_mols>  (36) 
x0451_0A,x0554_0A,x0556_0A,x0566_0A,x0310_0A,x0416_0A

>  <original SMILES>  (36) 
C=CC(=O)N1CCC[C@H](C(=O)N2CCc3cc(Br)c(S(N)(=O)=O)cc32)C1

>  <rationale>  (36) 
info info set:ROCS-cov2;Warhead 2.917860500435209Å to Cys110:SG; hydroph_interaction:Y89+A110+L22; 

>  <∆∆G>  (36) 
-1.215589

>  <comRMSD>  (36) 
0.569387

>  <ROCS_TanimotoCombo>  (36) 
0.528

>  <ROCS_ShapeTanimoto>  (36) 
0.376

>  <ROCS_ColorTanimoto>  (36) 
0.152

>  <distance>  (36) 
2.917861

$$$$
Z4425283079
     RDKit          3D

 52 54  0  0  0  0  0  0  0  0999 V2000
   13.0340   11.1280   24.6630 C   0  0  0  0  0  0  0  0  0  0  0  0
   13.7690   12.2070   24.0060 C   0  0  0  0  0  0  0  0  0  0  0  0
   12.9370   13.3860   23.4050 C   0  0  0  0  0  0  0  0  0  0  0  0
   12.5620   14.2640   24.1480 O   0  0  0  0  0  0  0  0  0  0  0  0
   12.7010   13.3260   21.9280 N   0  0  0  0  0  0  0  0  0  0  0  0
   12.0330   14.3600   21.2600 C   0  0  0  0  0  0  0  0  0  0  0  0
   10.7450   14.5900   21.8390 C   0  0  0  0  0  0  0  0  0  0  0  0
   10.3640   13.4440   22.2400 N   0  0  0  0  0  0  0  0  0  0  0  0
   10.2360   13.1020   23.5390 C   0  0  0  0  0  0  0  0  0  0  0  0
   10.5660   13.8270   24.4820 O   0  0  0  0  0  0  0  0  0  0  0  0
    9.6710   11.7750   23.7900 C   0  0  0  0  0  0  0  0  0  0  0  0
   10.4090   10.6700   23.4030 C   0  0  0  0  0  0  0  0  0  0  0  0
    9.9200    9.4030   23.6110 C   0  0  0  0  0  0  0  0  0  0  0  0
    8.5700    9.2130   24.2640 C   0  0  0  0  0  0  0  0  0  0  0  0
    7.7520   10.2760   24.6830 C   0  0  0  0  0  0  0  0  0  0  0  0
    8.4200   11.6470   24.3900 C   0  0  0  0  0  0  0  0  0  0  0  0
    7.7920   12.8290   24.7130 O   0  0  0  0  0  0  0  0  0  0  0  0
    7.5120   12.9540   26.1060 C   0  0  0  0  0  0  0  0  0  0  0  0
    6.4350   12.1430   26.4690 C   0  0  0  0  0  0  0  0  0  0  0  0
    6.6470   10.7720   26.4960 C   0  0  0  0  0  0  0  0  0  0  0  0
    6.6520   10.1550   25.2140 O   0  0  0  0  0  0  0  0  0  0  0  0
   11.8620   14.0830   19.7250 C   0  0  0  0  0  0  0  0  0  0  0  0
   11.9470   15.3060   18.8340 C   0  0  0  0  0  0  0  0  0  0  0  0
   11.0400   16.3700   19.3920 C   0  0  0  0  0  0  0  0  0  0  0  0
   11.3420   16.5290   20.8760 C   0  0  0  0  0  0  0  0  0  0  0  0
   12.5930   15.7420   21.2900 C   0  0  0  0  0  0  0  0  0  0  0  0
   11.9470   11.1470   24.7350 H   0  0  0  0  0  0  0  0  0  0  0  0
   13.5710   10.2860   25.0880 H   0  0  0  0  0  0  0  0  0  0  0  0
   14.8480   12.2250   23.9220 H   0  0  0  0  0  0  0  0  0  0  0  0
   12.5550   12.4070   21.5110 H   0  0  0  0  0  0  0  0  0  0  0  0
    9.9000   14.8400   21.2120 H   0  0  0  0  0  0  0  0  0  0  0  0
   10.7320   15.4240   22.5310 H   0  0  0  0  0  0  0  0  0  0  0  0
   10.6390   12.6760   21.6200 H   0  0  0  0  0  0  0  0  0  0  0  0
   11.3730   10.8200   22.9350 H   0  0  0  0  0  0  0  0  0  0  0  0
   10.4960    8.5320   23.3100 H   0  0  0  0  0  0  0  0  0  0  0  0
    8.2240    8.2010   24.4140 H   0  0  0  0  0  0  0  0  0  0  0  0
    8.3800   12.7060   26.7220 H   0  0  0  0  0  0  0  0  0  0  0  0
    7.2670   13.9940   26.2910 H   0  0  0  0  0  0  0  0  0  0  0  0
    5.6090   12.3470   25.7830 H   0  0  0  0  0  0  0  0  0  0  0  0
    6.1090   12.4520   27.4690 H   0  0  0  0  0  0  0  0  0  0  0  0
    7.6580   10.6120   26.8620 H   0  0  0  0  0  0  0  0  0  0  0  0
    5.9690   10.2500   27.1920 H   0  0  0  0  0  0  0  0  0  0  0  0
   12.6050   13.3710   19.3670 H   0  0  0  0  0  0  0  0  0  0  0  0
   10.8860   13.6370   19.5300 H   0  0  0  0  0  0  0  0  0  0  0  0
   12.9810   15.6390   18.8010 H   0  0  0  0  0  0  0  0  0  0  0  0
   11.6580   15.0650   17.8040 H   0  0  0  0  0  0  0  0  0  0  0  0
    9.9990   16.0450   19.2870 H   0  0  0  0  0  0  0  0  0  0  0  0
   11.1050   17.2960   18.8260 H   0  0  0  0  0  0  0  0  0  0  0  0
   10.4920   16.1280   21.4340 H   0  0  0  0  0  0  0  0  0  0  0  0
   11.3700   17.5610   21.1850 H   0  0  0  0  0  0  0  0  0  0  0  0
   12.9220   16.0020   22.2810 H   0  0  0  0  0  0  0  0  0  0  0  0
   13.4110   15.9140   20.5880 H   0  0  0  0  0  0  0  0  0  0  0  0
  1  2  2  0
  2  3  1  0
  3  4  2  0
  3  5  1  0
  5  6  1  0
  6  7  1  0
  7  8  1  0
  8  9  1  0
  9 10  2  0
  9 11  1  0
 11 12  2  0
 12 13  1  0
 13 14  2  0
 14 15  1  0
 15 16  2  0
 16 17  1  0
 17 18  1  0
 18 19  1  0
 19 20  1  0
 20 21  1  0
  6 22  1  0
 22 23  1  0
 23 24  1  0
 24 25  1  0
 25 26  1  0
 26  6  1  0
 16 11  1  0
 21 15  1  0
  1 27  1  0
  1 28  1  0
  2 29  1  0
  5 30  1  0
  7 31  1  0
  7 32  1  0
  8 33  1  0
 12 34  1  0
 13 35  1  0
 14 36  1  0
 18 37  1  0
 18 38  1  0
 19 39  1  0
 19 40  1  0
 20 41  1  0
 20 42  1  0
 22 43  1  0
 22 44  1  0
 23 45  1  0
 23 46  1  0
 24 47  1  0
 24 48  1  0
 25 49  1  0
 25 50  1  0
 26 51  1  0
 26 52  1  0
A    1
 C1 
A    2
 C2 
A    3
 C3 
A    4
 O1 
A    5
 N1 
A    6
 C4 
A    7
 C5 
A    8
 N2 
A    9
 C6 
A   10
 O2 
A   11
 C7 
A   12
 C8 
A   13
 C9 
A   14
 C10
A   15
 C11
A   16
 C12
A   17
 O3 
A   18
 C13
A   19
 C14
A   20
 C15
A   21
 O4 
A   22
 C16
A   23
 C17
A   24
 C18
A   25
 C19
A   26
 C20
A   27
 H1 
A   28
 H2 
A   29
 H3 
A   30
 H4 
A   31
 H5 
A   32
 H6 
A   33
 H7 
A   34
 H8 
A   35
 H9 
A   36
 H10
A   37
 H11
A   38
 H12
A   39
 H13
A   40
 H14
A   41
 H15
A   42
 H16
A   43
 H17
A   44
 H18
A   45
 H19
A   46
 H20
A   47
 H21
A   48
 H22
A   49
 H23
A   50
 H24
A   51
 H25
A   52
 H26
M  END
>  <ref_pdb>  (37) 
x0451_0A

>  <ref_mols>  (37) 
x0451_0A,x0554_0A,x0556_0A,x0566_0A,x0310_0A,x0416_0A

>  <original SMILES>  (37) 
C=CC(=O)NC1(CNC(=O)c2cccc3c2OCCCO3)CCCCC1

>  <rationale>  (37) 
info info set:ROCS-cov2;Warhead 1.2127965286889653Å to Cys110:SG; hbond:S125; hydroph_interaction:Y89+Y90+A110; 

>  <∆∆G>  (37) 
-1.030663

>  <comRMSD>  (37) 
0.894375

>  <ROCS_TanimotoCombo>  (37) 
0.574

>  <ROCS_ShapeTanimoto>  (37) 
0.377

>  <ROCS_ColorTanimoto>  (37) 
0.196

>  <distance>  (37) 
1.212797

$$$$
Z3608086105
     RDKit          3D

 48 50  0  0  0  0  0  0  0  0999 V2000
   14.6850   12.1500   24.6860 C   0  0  0  0  0  0  0  0  0  0  0  0
   13.3470   12.1940   24.0040 C   0  0  0  0  0  0  0  0  0  0  0  0
   12.7100   13.3740   23.5960 C   0  0  0  0  0  0  0  0  0  0  0  0
   12.4000   14.1820   24.4560 O   0  0  0  0  0  0  0  0  0  0  0  0
   12.4450   13.5420   22.2520 N   0  0  0  0  0  0  0  0  0  0  0  0
   12.0290   14.8190   21.7120 C   0  0  0  0  0  0  0  0  0  0  0  0
   10.5970   15.0560   21.9930 C   0  0  0  0  0  0  0  0  0  0  0  0
   10.2850   14.7360   23.3030 C   0  0  0  0  0  0  0  0  0  0  0  0
   10.6400   15.4790   24.2110 O   0  0  0  0  0  0  0  0  0  0  0  0
    9.5650   13.5640   23.6370 N   0  0  0  0  0  0  0  0  0  0  0  0
    9.7130   12.9320   24.9450 C   0  0  2  0  0  0  0  0  0  0  0  0
   10.5900   11.8610   24.8110 C   0  0  0  0  0  0  0  0  0  0  0  0
    9.9490   10.5250   24.5410 C   0  0  0  0  0  0  0  0  0  0  0  0
    9.3760   10.4110   23.1970 C   0  0  0  0  0  0  0  0  0  0  0  0
    9.3940    8.9960   22.7860 C   0  0  0  0  0  0  0  0  0  0  0  0
   10.0670    8.4020   23.7410 C   0  0  0  0  0  0  0  0  0  0  0  0
   10.9090    9.3580   24.3160 C   0  0  0  0  0  0  0  0  0  0  0  0
    8.9540   10.1540   25.4670 O   0  0  0  0  0  0  0  0  0  0  0  0
    8.0800   11.1430   25.7120 C   0  0  0  0  0  0  0  0  0  0  0  0
    6.7370   10.7300   26.2530 C   0  0  0  0  0  0  0  0  0  0  0  0
    5.8080   11.7190   26.5280 C   0  0  0  0  0  0  0  0  0  0  0  0
    6.1380   13.0570   26.2970 C   0  0  0  0  0  0  0  0  0  0  0  0
    4.9880   14.2830   26.6410 Cl  0  0  0  0  0  0  0  0  0  0  0  0
    7.3850   13.4340   25.7910 C   0  0  0  0  0  0  0  0  0  0  0  0
    8.3730   12.4870   25.4910 C   0  0  0  0  0  0  0  0  0  0  0  0
   15.2470   13.0640   24.8990 H   0  0  0  0  0  0  0  0  0  0  0  0
   15.1340   11.2000   24.9860 H   0  0  0  0  0  0  0  0  0  0  0  0
   12.7910   11.2910   23.7980 H   0  0  0  0  0  0  0  0  0  0  0  0
   12.1960   12.7350   21.6760 H   0  0  0  0  0  0  0  0  0  0  0  0
   12.2550   14.8130   20.6410 H   0  0  0  0  0  0  0  0  0  0  0  0
   12.6460   15.5910   22.1820 H   0  0  0  0  0  0  0  0  0  0  0  0
   10.4410   16.1350   21.8810 H   0  0  0  0  0  0  0  0  0  0  0  0
    9.9210   14.6260   21.2580 H   0  0  0  0  0  0  0  0  0  0  0  0
    9.4740   12.8310   22.9330 H   0  0  0  0  0  0  0  0  0  0  0  0
   10.1390   13.6710   25.6360 H   0  0  0  0  0  0  0  0  0  0  0  0
   11.1970   12.0720   23.9410 H   0  0  0  0  0  0  0  0  0  0  0  0
   11.2950   11.8500   25.6410 H   0  0  0  0  0  0  0  0  0  0  0  0
    8.3910   10.8790   23.1610 H   0  0  0  0  0  0  0  0  0  0  0  0
   10.0490   10.9680   22.5540 H   0  0  0  0  0  0  0  0  0  0  0  0
    8.3840    8.5830   22.7620 H   0  0  0  0  0  0  0  0  0  0  0  0
    9.7990    8.9200   21.7860 H   0  0  0  0  0  0  0  0  0  0  0  0
    9.4140    7.8870   24.4320 H   0  0  0  0  0  0  0  0  0  0  0  0
   10.6770    7.6360   23.2750 H   0  0  0  0  0  0  0  0  0  0  0  0
   11.3640    9.0250   25.2400 H   0  0  0  0  0  0  0  0  0  0  0  0
   11.7230    9.6300   23.6570 H   0  0  0  0  0  0  0  0  0  0  0  0
    6.5050    9.6820   26.4250 H   0  0  0  0  0  0  0  0  0  0  0  0
    4.8300   11.4500   26.9220 H   0  0  0  0  0  0  0  0  0  0  0  0
    7.5880   14.4910   25.6280 H   0  0  0  0  0  0  0  0  0  0  0  0
  1  2  2  0
  2  3  1  0
  3  4  2  0
  3  5  1  0
  5  6  1  0
  6  7  1  0
  7  8  1  0
  8  9  2  0
  8 10  1  0
 10 11  1  0
 11 12  1  0
 12 13  1  0
 13 14  1  0
 14 15  1  0
 15 16  1  0
 16 17  1  0
 13 18  1  0
 18 19  1  0
 19 20  2  0
 20 21  1  0
 21 22  2  0
 22 23  1  0
 22 24  1  0
 24 25  2  0
 25 11  1  0
 17 13  1  0
 25 19  1  0
  1 26  1  0
  1 27  1  0
  2 28  1  0
  5 29  1  0
  6 30  1  0
  6 31  1  0
  7 32  1  0
  7 33  1  0
 10 34  1  0
 11 35  1  1
 12 36  1  0
 12 37  1  0
 14 38  1  0
 14 39  1  0
 15 40  1  0
 15 41  1  0
 16 42  1  0
 16 43  1  0
 17 44  1  0
 17 45  1  0
 20 46  1  0
 21 47  1  0
 24 48  1  0
A    1
 C1 
A    2
 C2 
A    3
 C3 
A    4
 O1 
A    5
 N1 
A    6
 C4 
A    7
 C5 
A    8
 C6 
A    9
 O2 
A   10
 N2 
A   11
 C7 
A   12
 C8 
A   13
 C9 
A   14
 C10
A   15
 C11
A   16
 C12
A   17
 C13
A   18
 O3 
A   19
 C14
A   20
 C15
A   21
 C16
A   22
 C17
A   23
CL1 
A   24
 C18
A   25
 C19
A   26
 H1 
A   27
 H2 
A   28
 H3 
A   29
 H4 
A   30
 H5 
A   31
 H6 
A   32
 H7 
A   33
 H8 
A   34
 H9 
A   35
 H10
A   36
 H11
A   37
 H12
A   38
 H13
A   39
 H14
A   40
 H15
A   41
 H16
A   42
 H17
A   43
 H18
A   44
 H19
A   45
 H20
A   46
 H21
A   47
 H22
A   48
 H23
M  END
>  <ref_pdb>  (38) 
x0451_0A

>  <ref_mols>  (38) 
x0451_0A,x0554_0A,x0556_0A,x0566_0A,x0310_0A,x0416_0A

>  <original SMILES>  (38) 
C=CC(=O)NCCC(=O)N[C@@H]1CC2(CCCC2)Oc2ccc(Cl)cc21

>  <rationale>  (38) 
info info set:ROCS-cov2;Warhead 2.2599538468738687Å to Cys110:SG; hbond:S87+S125; hydroph_interaction:Y89+A110+V124+D109+L22; 

>  <∆∆G>  (38) 
-0.48239

>  <comRMSD>  (38) 
1.592741

>  <ROCS_TanimotoCombo>  (38) 
0.542

>  <ROCS_ShapeTanimoto>  (38) 
0.356

>  <ROCS_ColorTanimoto>  (38) 
0.186

>  <distance>  (38) 
2.259954

$$$$
Z4425210976
     RDKit          3D

 47 49  0  0  0  0  0  0  0  0999 V2000
   12.3260   14.3360   24.2250 O   0  0  0  0  0  0  0  0  0  0  0  0
   12.4940   13.3990   23.4730 C   0  0  0  0  0  0  0  0  0  0  0  0
   13.3710   12.2350   23.8560 C   0  0  0  0  0  0  0  0  0  0  0  0
   12.3850   11.0110   24.6720 Cl  0  0  0  0  0  0  0  0  0  0  0  0
   11.8660   13.3630   22.2150 N   0  0  0  0  0  0  0  0  0  0  0  0
   11.3330   14.4910   21.5730 C   0  0  0  0  0  0  0  0  0  0  0  0
   10.2260   15.1030   22.1240 C   0  0  0  0  0  0  0  0  0  0  0  0
    9.4120   14.0510   22.6610 N   0  0  0  0  0  0  0  0  0  0  0  0
    9.7770   13.4000   23.8040 C   0  0  0  0  0  0  0  0  0  0  0  0
   10.4660   13.8430   24.7100 O   0  0  0  0  0  0  0  0  0  0  0  0
    9.2590   12.0080   24.0540 C   0  0  0  0  0  0  0  0  0  0  0  0
    9.8190   10.9030   23.4950 N   0  0  0  0  0  0  0  0  0  0  0  0
    8.9650    9.5950   24.0200 S   0  0  0  0  0  0  0  0  0  0  0  0
    7.8480   10.4780   24.9880 C   0  0  0  0  0  0  0  0  0  0  0  0
    6.7050    9.9470   25.8230 C   0  0  0  0  0  0  0  0  0  0  0  0
    5.9000   10.9850   26.5670 C   0  0  0  0  0  0  0  0  0  0  0  0
    6.2190   12.4550   26.4820 C   0  0  0  0  0  0  0  0  0  0  0  0
    7.3670   12.9300   25.6360 C   0  0  0  0  0  0  0  0  0  0  0  0
    8.1620   11.8340   24.8930 C   0  0  0  0  0  0  0  0  0  0  0  0
   11.1040   14.3450   20.2000 C   0  0  0  0  0  0  0  0  0  0  0  0
   10.5700   15.5470   19.3590 C   0  0  0  0  0  0  0  0  0  0  0  0
   11.8050   15.4770   18.4980 C   0  0  0  0  0  0  0  0  0  0  0  0
   13.0070   15.1750   19.3330 C   0  0  0  0  0  0  0  0  0  0  0  0
   13.0140   15.9710   20.5970 C   0  0  0  0  0  0  0  0  0  0  0  0
   12.4930   15.3890   21.8250 C   0  0  0  0  0  0  0  0  0  0  0  0
   13.6830   11.8190   22.9190 H   0  0  0  0  0  0  0  0  0  0  0  0
   14.2610   12.3510   24.4640 H   0  0  0  0  0  0  0  0  0  0  0  0
   11.8100   12.4890   21.6750 H   0  0  0  0  0  0  0  0  0  0  0  0
    9.5600   15.6750   21.4890 H   0  0  0  0  0  0  0  0  0  0  0  0
   10.4070   15.7460   22.9810 H   0  0  0  0  0  0  0  0  0  0  0  0
    8.6690   13.6470   22.0760 H   0  0  0  0  0  0  0  0  0  0  0  0
    6.4750    8.9180   25.8900 H   0  0  0  0  0  0  0  0  0  0  0  0
    5.0830   10.5590   27.1590 H   0  0  0  0  0  0  0  0  0  0  0  0
    5.5710   13.1190   27.0640 H   0  0  0  0  0  0  0  0  0  0  0  0
    7.6180   13.9920   25.5580 H   0  0  0  0  0  0  0  0  0  0  0  0
   12.0230   13.9870   19.7190 H   0  0  0  0  0  0  0  0  0  0  0  0
   10.3950   13.5450   20.0660 H   0  0  0  0  0  0  0  0  0  0  0  0
    9.6420   15.3690   18.8090 H   0  0  0  0  0  0  0  0  0  0  0  0
   10.5190   16.4980   19.9000 H   0  0  0  0  0  0  0  0  0  0  0  0
   11.6930   14.7010   17.7310 H   0  0  0  0  0  0  0  0  0  0  0  0
   11.9320   16.4260   17.9670 H   0  0  0  0  0  0  0  0  0  0  0  0
   13.8960   15.3990   18.7790 H   0  0  0  0  0  0  0  0  0  0  0  0
   13.0210   14.1000   19.5390 H   0  0  0  0  0  0  0  0  0  0  0  0
   12.2010   16.6570   20.4220 H   0  0  0  0  0  0  0  0  0  0  0  0
   13.9350   16.5210   20.7540 H   0  0  0  0  0  0  0  0  0  0  0  0
   13.2840   14.8870   22.3790 H   0  0  0  0  0  0  0  0  0  0  0  0
   12.1490   16.2050   22.4620 H   0  0  0  0  0  0  0  0  0  0  0  0
  1  2  2  0
  2  3  1  0
  3  4  1  0
  2  5  1  0
  5  6  1  0
  6  7  1  0
  7  8  1  0
  8  9  1  0
  9 10  2  0
  9 11  1  0
 11 12  2  0
 12 13  1  0
 13 14  1  0
 14 15  2  0
 15 16  1  0
 16 17  2  0
 17 18  1  0
 18 19  2  0
  6 20  1  0
 20 21  1  0
 21 22  1  0
 22 23  1  0
 23 24  1  0
 24 25  1  0
 25  6  1  0
 19 11  1  0
 19 14  1  0
  3 26  1  0
  3 27  1  0
  5 28  1  0
  7 29  1  0
  7 30  1  0
  8 31  1  0
 15 32  1  0
 16 33  1  0
 17 34  1  0
 18 35  1  0
 20 36  1  0
 20 37  1  0
 21 38  1  0
 21 39  1  0
 22 40  1  0
 22 41  1  0
 23 42  1  0
 23 43  1  0
 24 44  1  0
 24 45  1  0
 25 46  1  0
 25 47  1  0
A    1
 O1 
A    2
 C1 
A    3
 C2 
A    4
CL1 
A    5
 N1 
A    6
 C3 
A    7
 C4 
A    8
 N2 
A    9
 C5 
A   10
 O2 
A   11
 C6 
A   12
 N3 
A   13
 S1 
A   14
 C7 
A   15
 C8 
A   16
 C9 
A   17
 C10
A   18
 C11
A   19
 C12
A   20
 C13
A   21
 C14
A   22
 C15
A   23
 C16
A   24
 C17
A   25
 C18
A   26
 H1 
A   27
 H2 
A   28
 H3 
A   29
 H4 
A   30
 H5 
A   31
 H6 
A   32
 H7 
A   33
 H8 
A   34
 H9 
A   35
 H10
A   36
 H11
A   37
 H12
A   38
 H13
A   39
 H14
A   40
 H15
A   41
 H16
A   42
 H17
A   43
 H18
A   44
 H19
A   45
 H20
A   46
 H21
A   47
 H22
M  END
>  <ref_pdb>  (39) 
x0451_0A

>  <ref_mols>  (39) 
x0451_0A,x0554_0A,x0556_0A,x0566_0A,x0310_0A,x0416_0A

>  <original SMILES>  (39) 
O=C(CCl)NC1(CNC(=O)c2nsc3ccccc23)CCCCCC1

>  <rationale>  (39) 
info info set:ROCS-cov2;Warhead 1.7176845024625438Å to Cys110:SG; hbond:S125+T126; hydroph_interaction:Y89+Y90+D39; 

>  <∆∆G>  (39) 
-0.433228

>  <comRMSD>  (39) 
1.155314

>  <ROCS_TanimotoCombo>  (39) 
0.554

>  <ROCS_ShapeTanimoto>  (39) 
0.356

>  <ROCS_ColorTanimoto>  (39) 
0.198

>  <distance>  (39) 
1.717685

$$$$
Z4425211736
     RDKit          3D

 54 56  0  0  0  0  0  0  0  0999 V2000
    9.9780   10.2180   23.0750 C   0  0  0  0  0  0  0  0  0  0  0  0
    8.8410   10.6730   23.9670 C   0  0  0  0  0  0  0  0  0  0  0  0
    8.2270    9.7890   24.7550 N   0  0  0  0  0  0  0  0  0  0  0  0
    7.2800   10.5910   25.4190 N   0  0  0  0  0  0  0  0  0  0  0  0
    6.4250   10.0730   26.3290 C   0  0  0  0  0  0  0  0  0  0  0  0
    7.3180   11.8700   25.0630 C   0  0  0  0  0  0  0  0  0  0  0  0
    6.4670   12.7990   25.6330 C   0  0  0  0  0  0  0  0  0  0  0  0
    8.2800   11.9890   24.1200 C   0  0  0  0  0  0  0  0  0  0  0  0
    8.5680   13.3290   23.4810 C   0  0  0  0  0  0  0  0  0  0  0  0
    9.7670   14.0190   24.0060 C   0  0  0  0  0  0  0  0  0  0  0  0
    9.7870   15.0490   24.6670 O   0  0  0  0  0  0  0  0  0  0  0  0
   10.8300   13.3410   23.6650 N   0  0  0  0  0  0  0  0  0  0  0  0
   11.9490   14.0600   23.2710 C   0  0  1  0  0  0  0  0  0  0  0  0
   13.0250   13.0480   23.4360 C   0  0  0  0  0  0  0  0  0  0  0  0
   12.6660   11.9380   24.2780 N   0  0  0  0  0  0  0  0  0  0  0  0
   13.5930   11.5080   25.1890 C   0  0  0  0  0  0  0  0  0  0  0  0
   14.4520   10.3950   25.0160 O   0  0  0  0  0  0  0  0  0  0  0  0
   13.6680   12.2360   26.3450 C   0  0  0  0  0  0  0  0  0  0  0  0
   15.3300   12.1390   26.9700 Cl  0  0  0  0  0  0  0  0  0  0  0  0
   11.6250   14.5940   21.8950 C   0  0  0  0  0  0  0  0  0  0  0  0
   10.3200   14.6860   21.5120 C   0  0  0  0  0  0  0  0  0  0  0  0
    9.6340   15.1410   20.2420 C   0  0  0  0  0  0  0  0  0  0  0  0
   10.8350   15.4460   19.4620 C   0  0  0  0  0  0  0  0  0  0  0  0
   10.4620   15.8990   18.0820 C   0  0  0  0  0  0  0  0  0  0  0  0
   11.3830   16.2030   17.2220 C   0  0  0  0  0  0  0  0  0  0  0  0
   12.7380   16.0840   17.6980 C   0  0  0  0  0  0  0  0  0  0  0  0
   13.0300   15.6580   18.9650 C   0  0  0  0  0  0  0  0  0  0  0  0
   12.1400   15.3550   19.8390 C   0  0  0  0  0  0  0  0  0  0  0  0
   12.5390   14.9640   21.0420 C   0  0  0  0  0  0  0  0  0  0  0  0
   10.4640   11.0710   22.6040 H   0  0  0  0  0  0  0  0  0  0  0  0
   10.7440    9.7040   23.6670 H   0  0  0  0  0  0  0  0  0  0  0  0
    9.6550    9.4920   22.3300 H   0  0  0  0  0  0  0  0  0  0  0  0
    6.3060   10.7910   27.1360 H   0  0  0  0  0  0  0  0  0  0  0  0
    6.7420    9.1760   26.7680 H   0  0  0  0  0  0  0  0  0  0  0  0
    5.4450    9.9010   25.8630 H   0  0  0  0  0  0  0  0  0  0  0  0
    5.5220   12.3220   25.9150 H   0  0  0  0  0  0  0  0  0  0  0  0
    6.8240   13.3270   26.5150 H   0  0  0  0  0  0  0  0  0  0  0  0
    6.2180   13.5520   24.8780 H   0  0  0  0  0  0  0  0  0  0  0  0
    8.6870   13.2290   22.4100 H   0  0  0  0  0  0  0  0  0  0  0  0
    7.7120   13.9990   23.6070 H   0  0  0  0  0  0  0  0  0  0  0  0
   10.6900   12.4150   23.2800 H   0  0  0  0  0  0  0  0  0  0  0  0
   12.0680   14.8610   23.9950 H   0  0  0  0  0  0  0  0  0  0  0  0
   13.1960   12.5730   22.4670 H   0  0  0  0  0  0  0  0  0  0  0  0
   13.9590   13.3770   23.8640 H   0  0  0  0  0  0  0  0  0  0  0  0
   11.6990   11.8760   24.5800 H   0  0  0  0  0  0  0  0  0  0  0  0
   13.0230   11.9780   27.1840 H   0  0  0  0  0  0  0  0  0  0  0  0
   13.4690   13.2650   26.0810 H   0  0  0  0  0  0  0  0  0  0  0  0
    9.6040   14.3750   22.2590 H   0  0  0  0  0  0  0  0  0  0  0  0
    8.5860   15.2000   19.9990 H   0  0  0  0  0  0  0  0  0  0  0  0
    9.4210   15.9700   17.7810 H   0  0  0  0  0  0  0  0  0  0  0  0
   11.1080   16.5040   16.2420 H   0  0  0  0  0  0  0  0  0  0  0  0
   13.5330   16.3390   17.0280 H   0  0  0  0  0  0  0  0  0  0  0  0
   14.0260   15.5700   19.2490 H   0  0  0  0  0  0  0  0  0  0  0  0
   13.5480   14.9380   21.3020 H   0  0  0  0  0  0  0  0  0  0  0  0
  1  2  1  0
  2  3  2  0
  3  4  1  0
  4  5  1  0
  4  6  1  0
  6  7  1  0
  6  8  2  0
  8  9  1  0
  9 10  1  0
 10 11  2  0
 10 12  1  0
 12 13  1  0
 13 14  1  0
 14 15  1  0
 15 16  1  0
 16 17  2  0
 16 18  1  0
 18 19  1  0
 13 20  1  0
 20 21  2  0
 21 22  1  0
 22 23  2  0
 23 24  1  0
 24 25  2  0
 25 26  1  0
 26 27  2  0
 27 28  1  0
 28 29  2  0
  8  2  1  0
 29 20  1  0
 28 23  1  0
  1 30  1  0
  1 31  1  0
  1 32  1  0
  5 33  1  0
  5 34  1  0
  5 35  1  0
  7 36  1  0
  7 37  1  0
  7 38  1  0
  9 39  1  0
  9 40  1  0
 12 41  1  0
 13 42  1  1
 14 43  1  0
 14 44  1  0
 15 45  1  0
 18 46  1  0
 18 47  1  0
 21 48  1  0
 22 49  1  0
 24 50  1  0
 25 51  1  0
 26 52  1  0
 27 53  1  0
 29 54  1  0
A    1
 C1 
A    2
 C2 
A    3
 N1 
A    4
 N2 
A    5
 C3 
A    6
 C4 
A    7
 C5 
A    8
 C6 
A    9
 C7 
A   10
 C8 
A   11
 O1 
A   12
 N3 
A   13
 C9 
A   14
 C10
A   15
 N4 
A   16
 C11
A   17
 O2 
A   18
 C12
A   19
CL1 
A   20
 C13
A   21
 C14
A   22
 C15
A   23
 C16
A   24
 C17
A   25
 C18
A   26
 C19
A   27
 C20
A   28
 C21
A   29
 C22
A   30
 H1 
A   31
 H2 
A   32
 H3 
A   33
 H4 
A   34
 H5 
A   35
 H6 
A   36
 H7 
A   37
 H8 
A   38
 H9 
A   39
 H10
A   40
 H11
A   41
 H12
A   42
 H13
A   43
 H14
A   44
 H15
A   45
 H16
A   46
 H17
A   47
 H18
A   48
 H19
A   49
 H20
A   50
 H21
A   51
 H22
A   52
 H23
A   53
 H24
A   54
 H25
M  END
>  <ref_pdb>  (40) 
x0451_0A

>  <ref_mols>  (40) 
x0451_0A,x0554_0A,x0556_0A,x0566_0A,x0310_0A,x0416_0A

>  <original SMILES>  (40) 
Cc1nn(C)c(C)c1CC(=O)N[C@@H](CNC(=O)CCl)c1ccc2ccccc2c1

>  <rationale>  (40) 
info info set:ROCS-cov2;Warhead 2.378625756608216Å to Cys110:SG; hbond:S125+A110+G108; hydroph_interaction:Y90+V84+D39; 

>  <∆∆G>  (40) 
-0.390647

>  <comRMSD>  (40) 
1.921928

>  <ROCS_TanimotoCombo>  (40) 
0.522

>  <ROCS_ShapeTanimoto>  (40) 
0.336

>  <ROCS_ColorTanimoto>  (40) 
0.186

>  <distance>  (40) 
2.378626

$$$$
Z4425283296
     RDKit          3D

 51 53  0  0  0  0  0  0  0  0999 V2000
   14.4120   11.7190   24.8090 C   0  0  0  0  0  0  0  0  0  0  0  0
   13.1900   11.9620   24.0090 C   0  0  0  0  0  0  0  0  0  0  0  0
   12.8400   13.1750   23.3720 C   0  0  0  0  0  0  0  0  0  0  0  0
   12.9280   14.1990   24.0140 O   0  0  0  0  0  0  0  0  0  0  0  0
   12.4070   13.1350   22.0350 N   0  0  0  0  0  0  0  0  0  0  0  0
   11.8870   14.3400   21.3660 C   0  0  0  0  0  0  0  0  0  0  0  0
   10.5810   14.7940   21.8170 C   0  0  0  0  0  0  0  0  0  0  0  0
    9.8010   13.7810   22.4290 N   0  0  0  0  0  0  0  0  0  0  0  0
   10.1650   13.2360   23.6210 C   0  0  0  0  0  0  0  0  0  0  0  0
   10.9170   13.7820   24.4240 O   0  0  0  0  0  0  0  0  0  0  0  0
    9.5810   12.0180   23.8930 C   0  0  0  0  0  0  0  0  0  0  0  0
   10.0330   10.7710   23.4690 C   0  0  0  0  0  0  0  0  0  0  0  0
    9.0790    9.4500   23.9840 S   0  0  0  0  0  0  0  0  0  0  0  0
    8.0250   10.5290   24.8030 C   0  0  0  0  0  0  0  0  0  0  0  0
    8.4130   11.8500   24.6600 C   0  0  0  0  0  0  0  0  0  0  0  0
    7.5490   12.9170   25.3360 C   0  0  0  0  0  0  0  0  0  0  0  0
    6.3440   12.5020   26.0060 C   0  0  0  0  0  0  0  0  0  0  0  0
    6.2700   11.1080   26.5150 C   0  0  1  0  0  0  0  0  0  0  0  0
    4.9910   10.7470   26.9110 C   0  0  0  0  0  0  0  0  0  0  0  0
    6.8510   10.0500   25.5660 C   0  0  0  0  0  0  0  0  0  0  0  0
   12.7890   15.5020   21.7420 C   0  0  0  0  0  0  0  0  0  0  0  0
   13.2360   16.3560   20.6080 C   0  0  0  0  0  0  0  0  0  0  0  0
   13.2000   15.7110   19.3820 O   0  0  0  0  0  0  0  0  0  0  0  0
   11.9220   15.2940   19.0550 C   0  0  0  0  0  0  0  0  0  0  0  0
   11.7780   14.0820   19.8450 C   0  0  0  0  0  0  0  0  0  0  0  0
   15.1510   12.5110   24.9510 H   0  0  0  0  0  0  0  0  0  0  0  0
   14.5950   10.7410   25.2680 H   0  0  0  0  0  0  0  0  0  0  0  0
   12.4870   11.1540   23.8980 H   0  0  0  0  0  0  0  0  0  0  0  0
   12.1100   12.2620   21.6240 H   0  0  0  0  0  0  0  0  0  0  0  0
   10.0260   15.2340   20.9830 H   0  0  0  0  0  0  0  0  0  0  0  0
   10.7120   15.5500   22.6000 H   0  0  0  0  0  0  0  0  0  0  0  0
    8.8820   13.5350   21.9890 H   0  0  0  0  0  0  0  0  0  0  0  0
   10.9390   10.7310   22.8540 H   0  0  0  0  0  0  0  0  0  0  0  0
    7.4140   13.7890   24.7020 H   0  0  0  0  0  0  0  0  0  0  0  0
    8.1730   13.3060   26.1490 H   0  0  0  0  0  0  0  0  0  0  0  0
    6.2340   13.1530   26.8840 H   0  0  0  0  0  0  0  0  0  0  0  0
    5.4790   12.7330   25.3860 H   0  0  0  0  0  0  0  0  0  0  0  0
    6.8720   11.0940   27.4110 H   0  0  0  0  0  0  0  0  0  0  0  0
    4.2410   11.4770   26.5980 H   0  0  0  0  0  0  0  0  0  0  0  0
    4.7290    9.7690   26.4950 H   0  0  0  0  0  0  0  0  0  0  0  0
    4.9400   10.6640   28.0020 H   0  0  0  0  0  0  0  0  0  0  0  0
    6.0760    9.6640   24.9260 H   0  0  0  0  0  0  0  0  0  0  0  0
    7.1920    9.2170   26.1750 H   0  0  0  0  0  0  0  0  0  0  0  0
   13.6480   15.2170   22.3140 H   0  0  0  0  0  0  0  0  0  0  0  0
   12.2140   16.1440   22.4200 H   0  0  0  0  0  0  0  0  0  0  0  0
   12.5790   17.2140   20.6040 H   0  0  0  0  0  0  0  0  0  0  0  0
   14.2420   16.7140   20.7400 H   0  0  0  0  0  0  0  0  0  0  0  0
   11.8850   15.0830   17.9810 H   0  0  0  0  0  0  0  0  0  0  0  0
   11.1630   16.0350   19.3100 H   0  0  0  0  0  0  0  0  0  0  0  0
   12.5160   13.3660   19.4810 H   0  0  0  0  0  0  0  0  0  0  0  0
   10.7940   13.6710   19.6090 H   0  0  0  0  0  0  0  0  0  0  0  0
  1  2  2  0
  2  3  1  0
  3  4  2  0
  3  5  1  0
  5  6  1  0
  6  7  1  0
  7  8  1  0
  8  9  1  0
  9 10  2  0
  9 11  1  0
 11 12  2  0
 12 13  1  0
 13 14  1  0
 14 15  2  0
 15 16  1  0
 16 17  1  0
 17 18  1  0
 18 19  1  0
 18 20  1  0
  6 21  1  0
 21 22  1  0
 22 23  1  0
 23 24  1  0
 24 25  1  0
 25  6  1  0
 15 11  1  0
 20 14  1  0
  1 26  1  0
  1 27  1  0
  2 28  1  0
  5 29  1  0
  7 30  1  0
  7 31  1  0
  8 32  1  0
 12 33  1  0
 16 34  1  0
 16 35  1  0
 17 36  1  0
 17 37  1  0
 18 38  1  1
 19 39  1  0
 19 40  1  0
 19 41  1  0
 20 42  1  0
 20 43  1  0
 21 44  1  0
 21 45  1  0
 22 46  1  0
 22 47  1  0
 24 48  1  0
 24 49  1  0
 25 50  1  0
 25 51  1  0
A    1
 C1 
A    2
 C2 
A    3
 C3 
A    4
 O1 
A    5
 N1 
A    6
 C4 
A    7
 C5 
A    8
 N2 
A    9
 C6 
A   10
 O2 
A   11
 C7 
A   12
 C8 
A   13
 S1 
A   14
 C9 
A   15
 C10
A   16
 C11
A   17
 C12
A   18
 C13
A   19
 C14
A   20
 C15
A   21
 C16
A   22
 C17
A   23
 O3 
A   24
 C18
A   25
 C19
A   26
 H1 
A   27
 H2 
A   28
 H3 
A   29
 H4 
A   30
 H5 
A   31
 H6 
A   32
 H7 
A   33
 H8 
A   34
 H9 
A   35
 H10
A   36
 H11
A   37
 H12
A   38
 H13
A   39
 H14
A   40
 H15
A   41
 H16
A   42
 H17
A   43
 H18
A   44
 H19
A   45
 H20
A   46
 H21
A   47
 H22
A   48
 H23
A   49
 H24
A   50
 H25
A   51
 H26
M  END
>  <ref_pdb>  (41) 
x0451_0A

>  <ref_mols>  (41) 
x0451_0A,x0554_0A,x0556_0A,x0566_0A,x0310_0A,x0416_0A

>  <original SMILES>  (41) 
C=CC(=O)NC1(CNC(=O)c2csc3c2CC[C@@H](C)C3)CCOCC1

>  <rationale>  (41) 
info info set:ROCS-cov2;Warhead 1.4944505679345859Å to Cys110:SG; hbond:S125+T126; hydroph_interaction:Y89+A110; 

>  <∆∆G>  (41) 
-0.3465

>  <comRMSD>  (41) 
0.758303

>  <ROCS_TanimotoCombo>  (41) 
0.538

>  <ROCS_ShapeTanimoto>  (41) 
0.347

>  <ROCS_ColorTanimoto>  (41) 
0.191

>  <distance>  (41) 
1.494451

$$$$
Z3054930559
     RDKit          3D

 51 53  0  0  0  0  0  0  0  0999 V2000
   14.8880   11.1950   25.3700 C   0  0  0  0  0  0  0  0  0  0  0  0
   14.5990   12.5740   24.7990 C   0  0  0  0  0  0  0  0  0  0  0  0
   13.3620   12.8550   23.9210 C   0  0  0  0  0  0  0  0  0  0  0  0
   12.6000   11.8260   23.4990 O   0  0  0  0  0  0  0  0  0  0  0  0
   13.1300   14.1620   23.6500 N   0  0  0  0  0  0  0  0  0  0  0  0
   12.6650   14.6760   22.3310 C   0  0  0  0  0  0  0  0  0  0  0  0
   11.3470   15.3730   22.3280 C   0  0  0  0  0  0  0  0  0  0  0  0
   10.5550   14.5060   23.2440 C   0  0  0  0  0  0  0  0  0  0  0  0
    9.8600   14.9170   24.1660 O   0  0  0  0  0  0  0  0  0  0  0  0
   10.7950   13.2250   22.8540 N   0  0  0  0  0  0  0  0  0  0  0  0
   10.0750   12.1340   23.3830 C   0  0  0  0  0  0  0  0  0  0  0  0
   10.5210   10.8490   23.1280 C   0  0  0  0  0  0  0  0  0  0  0  0
    9.8590    9.7960   23.5870 C   0  0  0  0  0  0  0  0  0  0  0  0
    8.7440   10.0470   24.3020 C   0  0  0  0  0  0  0  0  0  0  0  0
    8.2540   11.2850   24.6000 C   0  0  0  0  0  0  0  0  0  0  0  0
    8.9160   12.3940   24.1420 C   0  0  0  0  0  0  0  0  0  0  0  0
    7.0780   11.2610   25.3550 N   0  0  0  0  0  0  0  0  0  0  0  0
    6.6500   12.3510   26.0770 C   0  0  0  0  0  0  0  0  0  0  0  0
    7.1730   13.4610   26.0730 O   0  0  0  0  0  0  0  0  0  0  0  0
    5.4210   12.0720   26.9130 C   0  0  0  0  0  0  0  0  0  0  0  0
    5.7420   11.8330   28.2500 C   0  0  0  0  0  0  0  0  0  0  0  0
    5.1450   12.7400   29.1120 C   0  0  0  0  0  0  0  0  0  0  0  0
    4.5880   13.8170   28.4120 C   0  0  0  0  0  0  0  0  0  0  0  0
    4.4480   13.2640   26.9910 C   0  0  0  0  0  0  0  0  0  0  0  0
    6.9090    9.8630   25.7050 C   0  0  0  0  0  0  0  0  0  0  0  0
    7.9030    9.0900   24.8190 C   0  0  0  0  0  0  0  0  0  0  0  0
   14.2150   10.3600   25.1660 H   0  0  0  0  0  0  0  0  0  0  0  0
   15.7730   11.0190   25.9890 H   0  0  0  0  0  0  0  0  0  0  0  0
   15.3260   13.3500   25.0480 H   0  0  0  0  0  0  0  0  0  0  0  0
   12.8370   14.7300   24.4390 H   0  0  0  0  0  0  0  0  0  0  0  0
   13.4900   15.2710   21.9490 H   0  0  0  0  0  0  0  0  0  0  0  0
   12.5720   13.8110   21.6640 H   0  0  0  0  0  0  0  0  0  0  0  0
   11.4120   16.3850   22.7350 H   0  0  0  0  0  0  0  0  0  0  0  0
   10.9100   15.4290   21.3250 H   0  0  0  0  0  0  0  0  0  0  0  0
   11.1280   13.0450   21.8980 H   0  0  0  0  0  0  0  0  0  0  0  0
   11.4220   10.7800   22.5350 H   0  0  0  0  0  0  0  0  0  0  0  0
   10.2630    8.8090   23.3400 H   0  0  0  0  0  0  0  0  0  0  0  0
    8.5130   13.3830   24.3790 H   0  0  0  0  0  0  0  0  0  0  0  0
    4.8890   11.2240   26.4700 H   0  0  0  0  0  0  0  0  0  0  0  0
    6.8130   12.0160   28.3440 H   0  0  0  0  0  0  0  0  0  0  0  0
    5.6290   10.8000   28.5750 H   0  0  0  0  0  0  0  0  0  0  0  0
    5.7880   13.0290   29.9390 H   0  0  0  0  0  0  0  0  0  0  0  0
    4.3250   12.2200   29.6150 H   0  0  0  0  0  0  0  0  0  0  0  0
    3.6070   14.0820   28.8160 H   0  0  0  0  0  0  0  0  0  0  0  0
    5.2220   14.7080   28.4490 H   0  0  0  0  0  0  0  0  0  0  0  0
    4.6250   14.0270   26.2390 H   0  0  0  0  0  0  0  0  0  0  0  0
    3.4240   12.8990   26.8440 H   0  0  0  0  0  0  0  0  0  0  0  0
    5.8880    9.5940   25.5040 H   0  0  0  0  0  0  0  0  0  0  0  0
    7.0990    9.7190   26.7620 H   0  0  0  0  0  0  0  0  0  0  0  0
    7.4960    8.8220   23.8780 H   0  0  0  0  0  0  0  0  0  0  0  0
    8.4100    8.2550   25.2690 H   0  0  0  0  0  0  0  0  0  0  0  0
  1  2  2  0
  2  3  1  0
  3  4  2  0
  3  5  1  0
  5  6  1  0
  6  7  1  0
  7  8  1  0
  8  9  2  0
  8 10  1  0
 10 11  1  0
 11 12  2  0
 12 13  1  0
 13 14  2  0
 14 15  1  0
 15 16  2  0
 15 17  1  0
 17 18  1  0
 18 19  2  0
 18 20  1  0
 20 21  1  0
 21 22  1  0
 22 23  1  0
 23 24  1  0
 17 25  1  0
 25 26  1  0
 16 11  1  0
 24 20  1  0
 26 14  1  0
  1 27  1  0
  1 28  1  0
  2 29  1  0
  5 30  1  0
  6 31  1  0
  6 32  1  0
  7 33  1  0
  7 34  1  0
 10 35  1  0
 12 36  1  0
 13 37  1  0
 16 38  1  0
 20 39  1  0
 21 40  1  0
 21 41  1  0
 22 42  1  0
 22 43  1  0
 23 44  1  0
 23 45  1  0
 24 46  1  0
 24 47  1  0
 25 48  1  0
 25 49  1  0
 26 50  1  0
 26 51  1  0
A    1
 C1 
A    2
 C2 
A    3
 C3 
A    4
 O1 
A    5
 N1 
A    6
 C4 
A    7
 C5 
A    8
 C6 
A    9
 O2 
A   10
 N2 
A   11
 C7 
A   12
 C8 
A   13
 C9 
A   14
 C10
A   15
 C11
A   16
 C12
A   17
 N3 
A   18
 C13
A   19
 O3 
A   20
 C14
A   21
 C15
A   22
 C16
A   23
 C17
A   24
 C18
A   25
 C19
A   26
 C20
A   27
 H1 
A   28
 H2 
A   29
 H3 
A   30
 H4 
A   31
 H5 
A   32
 H6 
A   33
 H7 
A   34
 H8 
A   35
 H9 
A   36
 H10
A   37
 H11
A   38
 H12
A   39
 H13
A   40
 H14
A   41
 H15
A   42
 H16
A   43
 H17
A   44
 H18
A   45
 H19
A   46
 H20
A   47
 H21
A   48
 H22
A   49
 H23
A   50
 H24
A   51
 H25
M  END
>  <ref_pdb>  (42) 
x0451_0A

>  <ref_mols>  (42) 
x0451_0A,x0554_0A,x0556_0A,x0566_0A,x0310_0A,x0416_0A

>  <original SMILES>  (42) 
C=CC(=O)NCCC(=O)Nc1ccc2c(c1)N(C(=O)C1CCCC1)CC2

>  <rationale>  (42) 
info info set:ROCS-cov2;Warhead 2.462441487629708Å to Cys110:SG; hbond:S87+S125; hydroph_interaction:Y89+A110; 

>  <∆∆G>  (42) 
-0.230283

>  <comRMSD>  (42) 
0.549347

>  <ROCS_TanimotoCombo>  (42) 
0.519

>  <ROCS_ShapeTanimoto>  (42) 
0.386

>  <ROCS_ColorTanimoto>  (42) 
0.133

>  <distance>  (42) 
2.462441

$$$$
Z4425283150
     RDKit          3D

 55 57  0  0  0  0  0  0  0  0999 V2000
   14.4710   11.7460   24.8650 C   0  0  0  0  0  0  0  0  0  0  0  0
   13.1320   11.7090   24.1300 C   0  0  0  0  0  0  0  0  0  0  0  0
   12.8720   13.0690   23.5000 C   0  0  0  0  0  0  0  0  0  0  0  0
   13.0530   14.0660   24.1720 O   0  0  0  0  0  0  0  0  0  0  0  0
   12.4020   13.1060   22.1110 N   0  0  0  0  0  0  0  0  0  0  0  0
   11.7820   14.2050   21.5830 C   0  0  0  0  0  0  0  0  0  0  0  0
   10.6550   14.5220   22.2670 C   0  0  0  0  0  0  0  0  0  0  0  0
   10.2420   13.2280   22.6370 N   0  0  0  0  0  0  0  0  0  0  0  0
   10.1110   12.9020   23.9200 C   0  0  0  0  0  0  0  0  0  0  0  0
   10.6460   13.6310   24.9340 O   0  0  0  0  0  0  0  0  0  0  0  0
    9.3680   11.7600   24.1230 C   0  0  0  0  0  0  0  0  0  0  0  0
    8.1900   11.7370   24.8460 C   0  0  0  0  0  0  0  0  0  0  0  0
    7.6310   12.8750   25.4630 C   0  0  0  0  0  0  0  0  0  0  0  0
    6.6890   13.6370   24.7170 C   0  0  0  0  0  0  0  0  0  0  0  0
    5.4970   13.7740   25.4180 C   0  0  0  0  0  0  0  0  0  0  0  0
    5.5210   12.9690   26.5250 C   0  0  0  0  0  0  0  0  0  0  0  0
    6.7700   12.3550   26.6560 C   0  0  0  0  0  0  0  0  0  0  0  0
    7.6720   10.5040   24.8890 N   0  0  0  0  0  0  0  0  0  0  0  0
    8.5510    9.7060   24.1700 O   0  0  0  0  0  0  0  0  0  0  0  0
    9.5770   10.4630   23.7080 C   0  0  0  0  0  0  0  0  0  0  0  0
   10.5400    9.8260   22.9790 C   0  0  0  0  0  0  0  0  0  0  0  0
   12.7170   15.3310   21.8560 C   0  0  0  0  0  0  0  0  0  0  0  0
   13.0110   16.1050   20.6520 C   0  0  0  0  0  0  0  0  0  0  0  0
   12.7510   15.4990   19.2890 C   0  0  0  0  0  0  0  0  0  0  0  0
   11.3250   15.2540   19.2740 C   0  0  0  0  0  0  0  0  0  0  0  0
   11.3770   14.0730   20.0800 C   0  0  0  0  0  0  0  0  0  0  0  0
   14.9520   10.9400   25.4240 H   0  0  0  0  0  0  0  0  0  0  0  0
   15.0300   12.6880   24.8370 H   0  0  0  0  0  0  0  0  0  0  0  0
   12.4740   10.8590   24.0730 H   0  0  0  0  0  0  0  0  0  0  0  0
   12.2330   12.2360   21.6300 H   0  0  0  0  0  0  0  0  0  0  0  0
    9.8040   14.9230   21.7240 H   0  0  0  0  0  0  0  0  0  0  0  0
   10.7280   15.1140   23.1750 H   0  0  0  0  0  0  0  0  0  0  0  0
   10.5430   12.5000   21.9850 H   0  0  0  0  0  0  0  0  0  0  0  0
    8.3970   13.4940   25.9240 H   0  0  0  0  0  0  0  0  0  0  0  0
    7.0680   14.6610   24.6210 H   0  0  0  0  0  0  0  0  0  0  0  0
    6.5850   13.3630   23.6770 H   0  0  0  0  0  0  0  0  0  0  0  0
    5.3700   14.8210   25.7140 H   0  0  0  0  0  0  0  0  0  0  0  0
    4.6320   13.5330   24.7960 H   0  0  0  0  0  0  0  0  0  0  0  0
    4.8000   12.1660   26.3250 H   0  0  0  0  0  0  0  0  0  0  0  0
    5.1540   13.4200   27.4450 H   0  0  0  0  0  0  0  0  0  0  0  0
    6.8040   11.2730   26.7450 H   0  0  0  0  0  0  0  0  0  0  0  0
    7.2190   12.7360   27.5810 H   0  0  0  0  0  0  0  0  0  0  0  0
   10.0970    9.2550   22.1580 H   0  0  0  0  0  0  0  0  0  0  0  0
   11.2170   10.5670   22.5620 H   0  0  0  0  0  0  0  0  0  0  0  0
   11.1190    9.1350   23.5970 H   0  0  0  0  0  0  0  0  0  0  0  0
   13.6110   15.0330   22.3560 H   0  0  0  0  0  0  0  0  0  0  0  0
   12.2090   16.0100   22.5440 H   0  0  0  0  0  0  0  0  0  0  0  0
   13.9850   16.5860   20.7100 H   0  0  0  0  0  0  0  0  0  0  0  0
   12.2250   16.8340   20.8110 H   0  0  0  0  0  0  0  0  0  0  0  0
   13.2700   14.5540   19.1800 H   0  0  0  0  0  0  0  0  0  0  0  0
   13.0000   16.1070   18.4380 H   0  0  0  0  0  0  0  0  0  0  0  0
   10.7550   16.0590   19.7500 H   0  0  0  0  0  0  0  0  0  0  0  0
   10.9420   15.0610   18.2650 H   0  0  0  0  0  0  0  0  0  0  0  0
   12.1230   13.4630   19.5630 H   0  0  0  0  0  0  0  0  0  0  0  0
   10.4180   13.5850   19.9870 H   0  0  0  0  0  0  0  0  0  0  0  0
  1  2  2  0
  2  3  1  0
  3  4  2  0
  3  5  1  0
  5  6  1  0
  6  7  1  0
  7  8  1  0
  8  9  1  0
  9 10  2  0
  9 11  1  0
 11 12  1  0
 12 13  1  0
 13 14  1  0
 14 15  1  0
 15 16  1  0
 16 17  1  0
 12 18  2  0
 18 19  1  0
 19 20  1  0
 20 21  1  0
  6 22  1  0
 22 23  1  0
 23 24  1  0
 24 25  1  0
 25 26  1  0
 26  6  1  0
 20 11  2  0
 17 13  1  0
  1 27  1  0
  1 28  1  0
  2 29  1  0
  5 30  1  0
  7 31  1  0
  7 32  1  0
  8 33  1  0
 13 34  1  0
 14 35  1  0
 14 36  1  0
 15 37  1  0
 15 38  1  0
 16 39  1  0
 16 40  1  0
 17 41  1  0
 17 42  1  0
 21 43  1  0
 21 44  1  0
 21 45  1  0
 22 46  1  0
 22 47  1  0
 23 48  1  0
 23 49  1  0
 24 50  1  0
 24 51  1  0
 25 52  1  0
 25 53  1  0
 26 54  1  0
 26 55  1  0
A    1
 C1 
A    2
 C2 
A    3
 C3 
A    4
 O1 
A    5
 N1 
A    6
 C4 
A    7
 C5 
A    8
 N2 
A    9
 C6 
A   10
 O2 
A   11
 C7 
A   12
 C8 
A   13
 C9 
A   14
 C10
A   15
 C11
A   16
 C12
A   17
 C13
A   18
 N3 
A   19
 O3 
A   20
 C14
A   21
 C15
A   22
 C16
A   23
 C17
A   24
 C18
A   25
 C19
A   26
 C20
A   27
 H1 
A   28
 H2 
A   29
 H3 
A   30
 H4 
A   31
 H5 
A   32
 H6 
A   33
 H7 
A   34
 H8 
A   35
 H9 
A   36
 H10
A   37
 H11
A   38
 H12
A   39
 H13
A   40
 H14
A   41
 H15
A   42
 H16
A   43
 H17
A   44
 H18
A   45
 H19
A   46
 H20
A   47
 H21
A   48
 H22
A   49
 H23
A   50
 H24
A   51
 H25
A   52
 H26
A   53
 H27
A   54
 H28
A   55
 H29
M  END
>  <ref_pdb>  (43) 
x0451_0A

>  <ref_mols>  (43) 
x0451_0A,x0554_0A,x0556_0A,x0566_0A,x0310_0A,x0416_0A

>  <original SMILES>  (43) 
C=CC(=O)NC1(CNC(=O)c2c(C3CCCC3)noc2C)CCCCC1

>  <rationale>  (43) 
info info set:ROCS-cov2;Warhead 1.9175359422967813Å to Cys110:SG; hbond:S125; hydroph_interaction:Y89+Y90+A110; 

>  <∆∆G>  (43) 
-0.041559

>  <comRMSD>  (43) 
0.810947

>  <ROCS_TanimotoCombo>  (43) 
0.528

>  <ROCS_ShapeTanimoto>  (43) 
0.346

>  <ROCS_ColorTanimoto>  (43) 
0.181

>  <distance>  (43) 
1.917536

$$$$
Z2285378207
     RDKit          3D

 28 28  0  0  0  0  0  0  0  0999 V2000
   13.0240   11.5990   24.6720 C   0  0  0  0  0  0  0  0  0  0  0  0
   13.3560   13.0640   24.3970 C   0  0  0  0  0  0  0  0  0  0  0  0
   12.1130   13.9290   24.1900 C   0  0  0  0  0  0  0  0  0  0  0  0
   11.5930   14.5770   25.1070 O   0  0  0  0  0  0  0  0  0  0  0  0
   11.5480   13.9650   22.9390 N   0  0  0  0  0  0  0  0  0  0  0  0
   10.1330   14.1520   22.7320 C   0  0  1  0  0  0  0  0  0  0  0  0
   10.0400   14.4900   21.2280 C   0  0  0  0  0  0  0  0  0  0  0  0
    9.5110   13.0670   23.3710 C   0  0  0  0  0  0  0  0  0  0  0  0
   10.0950   11.6610   23.3750 C   0  0  0  0  0  0  0  0  0  0  0  0
    9.4060   10.6600   24.0450 C   0  0  0  0  0  0  0  0  0  0  0  0
    8.2050   10.9580   24.7010 C   0  0  0  0  0  0  0  0  0  0  0  0
    7.5580    9.9630   25.3650 C   0  0  0  0  0  0  0  0  0  0  0  0
    7.5550   10.2240   26.6690 F   0  0  0  0  0  0  0  0  0  0  0  0
    6.2450    9.8470   25.1520 F   0  0  0  0  0  0  0  0  0  0  0  0
    8.1040    8.7500   25.1310 F   0  0  0  0  0  0  0  0  0  0  0  0
    7.6690   12.2060   24.7080 N   0  0  0  0  0  0  0  0  0  0  0  0
    8.3080   13.2110   24.0600 C   0  0  0  0  0  0  0  0  0  0  0  0
    7.4270   14.7510   24.1990 Cl  0  0  0  0  0  0  0  0  0  0  0  0
   11.9860   11.2580   24.7030 H   0  0  0  0  0  0  0  0  0  0  0  0
   13.8160   10.8600   24.8420 H   0  0  0  0  0  0  0  0  0  0  0  0
   14.3580   13.4540   24.3560 H   0  0  0  0  0  0  0  0  0  0  0  0
   12.0880   13.5930   22.1640 H   0  0  0  0  0  0  0  0  0  0  0  0
    9.8760   15.0570   23.2940 H   0  0  0  0  0  0  0  0  0  0  0  0
   10.5980   15.4060   21.0060 H   0  0  0  0  0  0  0  0  0  0  0  0
    8.9990   14.6720   20.9460 H   0  0  0  0  0  0  0  0  0  0  0  0
   10.4500   13.7090   20.5860 H   0  0  0  0  0  0  0  0  0  0  0  0
   11.0390   11.4400   22.8610 H   0  0  0  0  0  0  0  0  0  0  0  0
    9.8620    9.6650   24.0210 H   0  0  0  0  0  0  0  0  0  0  0  0
  1  2  2  0
  2  3  1  0
  3  4  2  0
  3  5  1  0
  5  6  1  0
  6  7  1  0
  6  8  1  0
  8  9  2  0
  9 10  1  0
 10 11  2  0
 11 12  1  0
 12 13  1  0
 12 14  1  0
 12 15  1  0
 11 16  1  0
 16 17  2  0
 17 18  1  0
 17  8  1  0
  1 19  1  0
  1 20  1  0
  2 21  1  0
  5 22  1  0
  6 23  1  1
  7 24  1  0
  7 25  1  0
  7 26  1  0
  9 27  1  0
 10 28  1  0
A    1
 C1 
A    2
 C2 
A    3
 C3 
A    4
 O1 
A    5
 N1 
A    6
 C4 
A    7
 C5 
A    8
 C6 
A    9
 C7 
A   10
 C8 
A   11
 C9 
A   12
 C10
A   13
 F1 
A   14
 F2 
A   15
 F3 
A   16
 N2 
A   17
 C11
A   18
CL1 
A   19
 H1 
A   20
 H2 
A   21
 H3 
A   22
 H4 
A   23
 H5 
A   24
 H6 
A   25
 H7 
A   26
 H8 
A   27
 H9 
A   28
 H10
M  END
>  <ref_pdb>  (44) 
x0451_0A

>  <ref_mols>  (44) 
x0451_0A,x0554_0A,x0556_0A,x0566_0A,x0310_0A,x0416_0A

>  <original SMILES>  (44) 
C=CC(=O)N[C@@H](C)c1ccc(C(F)(F)F)nc1Cl

>  <rationale>  (44) 
info info set:ROCS-electro;Warhead 2.518049900220406Å to Cys110:SG; hbond:H21; hydroph_interaction:Y89+A110; 

>  <∆∆G>  (44) 
-0.034885

>  <comRMSD>  (44) 
1.399898

>  <ROCS_TanimotoCombo>  (44) 
0.411

>  <ROCS_ShapeTanimoto>  (44) 
0.259

>  <ROCS_ColorTanimoto>  (44) 
0.152

>  <distance>  (44) 
2.51805

$$$$
Z4425211163
     RDKit          3D

 57 58  0  0  0  0  0  0  0  0999 V2000
    8.8640    8.7130   23.6410 C   0  0  0  0  0  0  0  0  0  0  0  0
    8.8130   10.2130   23.9600 C   0  0  0  0  0  0  0  0  0  0  0  0
    9.8700   11.1610   23.4390 C   0  0  0  0  0  0  0  0  0  0  0  0
    9.5550   12.4220   23.9090 C   0  0  0  0  0  0  0  0  0  0  0  0
   10.2030   13.7560   23.7660 C   0  0  0  0  0  0  0  0  0  0  0  0
   10.8680   14.2820   24.6330 O   0  0  0  0  0  0  0  0  0  0  0  0
    9.9450   14.4640   22.6110 N   0  0  0  0  0  0  0  0  0  0  0  0
   11.0060   15.3920   22.3240 C   0  0  0  0  0  0  0  0  0  0  0  0
   11.8330   14.6630   21.3420 C   0  0  0  0  0  0  0  0  0  0  0  0
   12.4520   13.4570   21.9890 N   0  0  0  0  0  0  0  0  0  0  0  0
   12.8020   13.3820   23.3480 C   0  0  0  0  0  0  0  0  0  0  0  0
   12.5850   14.2680   24.1320 O   0  0  0  0  0  0  0  0  0  0  0  0
   13.4650   12.2560   23.8230 C   0  0  0  0  0  0  0  0  0  0  0  0
   12.3960   11.1230   24.6710 Cl  0  0  0  0  0  0  0  0  0  0  0  0
   10.8400   14.3760   20.1340 C   0  0  0  0  0  0  0  0  0  0  0  0
   10.1920   15.4510   19.5050 C   0  0  0  0  0  0  0  0  0  0  0  0
   11.0040   16.1360   18.4480 C   0  0  0  0  0  0  0  0  0  0  0  0
   12.2910   15.5490   18.1940 C   0  0  0  0  0  0  0  0  0  0  0  0
   13.0760   15.0890   19.4200 C   0  0  0  0  0  0  0  0  0  0  0  0
   12.8450   15.5690   20.7250 C   0  0  0  0  0  0  0  0  0  0  0  0
    8.4620   12.3790   24.6300 N   0  0  0  0  0  0  0  0  0  0  0  0
    8.0200   11.1210   24.6800 N   0  0  0  0  0  0  0  0  0  0  0  0
    6.8460   11.0970   25.5060 C   0  0  0  0  0  0  0  0  0  0  0  0
    6.1520   12.2610   25.7370 C   0  0  0  0  0  0  0  0  0  0  0  0
    6.1000    9.8550   25.4740 C   0  0  0  0  0  0  0  0  0  0  0  0
    7.4200   10.8810   26.7890 C   0  0  0  0  0  0  0  0  0  0  0  0
    9.8490    8.4380   23.2470 H   0  0  0  0  0  0  0  0  0  0  0  0
    8.1170    8.4160   22.9060 H   0  0  0  0  0  0  0  0  0  0  0  0
    8.7000    8.1170   24.5470 H   0  0  0  0  0  0  0  0  0  0  0  0
   10.7280   10.9130   22.8140 H   0  0  0  0  0  0  0  0  0  0  0  0
    8.9770   14.7330   22.4730 H   0  0  0  0  0  0  0  0  0  0  0  0
   11.4330   15.6140   23.2930 H   0  0  0  0  0  0  0  0  0  0  0  0
   10.5500   16.3280   22.0080 H   0  0  0  0  0  0  0  0  0  0  0  0
   12.2000   12.5730   21.5420 H   0  0  0  0  0  0  0  0  0  0  0  0
   14.3070   12.4350   24.4830 H   0  0  0  0  0  0  0  0  0  0  0  0
   13.8280   11.7650   22.9540 H   0  0  0  0  0  0  0  0  0  0  0  0
   11.3920   13.8650   19.3390 H   0  0  0  0  0  0  0  0  0  0  0  0
   10.1930   13.6090   20.5010 H   0  0  0  0  0  0  0  0  0  0  0  0
    9.1780   15.2210   19.2060 H   0  0  0  0  0  0  0  0  0  0  0  0
   10.0110   16.2060   20.2780 H   0  0  0  0  0  0  0  0  0  0  0  0
   10.4370   16.1020   17.5080 H   0  0  0  0  0  0  0  0  0  0  0  0
   11.1000   17.1940   18.6890 H   0  0  0  0  0  0  0  0  0  0  0  0
   12.8850   16.1940   17.5570 H   0  0  0  0  0  0  0  0  0  0  0  0
   12.1170   14.6460   17.6060 H   0  0  0  0  0  0  0  0  0  0  0  0
   12.9580   14.0030   19.4590 H   0  0  0  0  0  0  0  0  0  0  0  0
   14.0430   15.2300   19.0470 H   0  0  0  0  0  0  0  0  0  0  0  0
   12.3660   16.5090   20.7820 H   0  0  0  0  0  0  0  0  0  0  0  0
   13.6730   15.6920   21.4050 H   0  0  0  0  0  0  0  0  0  0  0  0
    5.0680   12.2390   25.8210 H   0  0  0  0  0  0  0  0  0  0  0  0
    6.3560   12.9840   24.9370 H   0  0  0  0  0  0  0  0  0  0  0  0
    6.5200   12.7270   26.6570 H   0  0  0  0  0  0  0  0  0  0  0  0
    6.2590    9.4510   24.5130 H   0  0  0  0  0  0  0  0  0  0  0  0
    5.0410    9.9930   25.6800 H   0  0  0  0  0  0  0  0  0  0  0  0
    6.4850    9.1570   26.2040 H   0  0  0  0  0  0  0  0  0  0  0  0
    7.2830    9.8340   27.0170 H   0  0  0  0  0  0  0  0  0  0  0  0
    8.4870   11.1160   26.7730 H   0  0  0  0  0  0  0  0  0  0  0  0
    6.9290   11.4760   27.5680 H   0  0  0  0  0  0  0  0  0  0  0  0
  1  2  1  0
  2  3  2  0
  3  4  1  0
  4  5  1  0
  5  6  2  0
  5  7  1  0
  7  8  1  0
  8  9  1  0
  9 10  1  0
 10 11  1  0
 11 12  2  0
 11 13  1  0
 13 14  1  0
  9 15  1  0
 15 16  1  0
 16 17  1  0
 17 18  1  0
 18 19  1  0
 19 20  1  0
  4 21  2  0
 21 22  1  0
 22 23  1  0
 23 24  1  0
 23 25  1  0
 23 26  1  0
 22  2  1  0
 20  9  1  0
  1 27  1  0
  1 28  1  0
  1 29  1  0
  3 30  1  0
  7 31  1  0
  8 32  1  0
  8 33  1  0
 10 34  1  0
 13 35  1  0
 13 36  1  0
 15 37  1  0
 15 38  1  0
 16 39  1  0
 16 40  1  0
 17 41  1  0
 17 42  1  0
 18 43  1  0
 18 44  1  0
 19 45  1  0
 19 46  1  0
 20 47  1  0
 20 48  1  0
 24 49  1  0
 24 50  1  0
 24 51  1  0
 25 52  1  0
 25 53  1  0
 25 54  1  0
 26 55  1  0
 26 56  1  0
 26 57  1  0
A    1
 C1 
A    2
 C2 
A    3
 C3 
A    4
 C4 
A    5
 C5 
A    6
 O1 
A    7
 N1 
A    8
 C6 
A    9
 C7 
A   10
 N2 
A   11
 C8 
A   12
 O2 
A   13
 C9 
A   14
CL1 
A   15
 C10
A   16
 C11
A   17
 C12
A   18
 C13
A   19
 C14
A   20
 C15
A   21
 N3 
A   22
 N4 
A   23
 C16
A   24
 C17
A   25
 C18
A   26
 C19
A   27
 H1 
A   28
 H2 
A   29
 H3 
A   30
 H4 
A   31
 H5 
A   32
 H6 
A   33
 H7 
A   34
 H8 
A   35
 H9 
A   36
 H10
A   37
 H11
A   38
 H12
A   39
 H13
A   40
 H14
A   41
 H15
A   42
 H16
A   43
 H17
A   44
 H18
A   45
 H19
A   46
 H20
A   47
 H21
A   48
 H22
A   49
 H23
A   50
 H24
A   51
 H25
A   52
 H26
A   53
 H27
A   54
 H28
A   55
 H29
A   56
 H30
A   57
 H31
M  END
>  <ref_pdb>  (45) 
x0451_0A

>  <ref_mols>  (45) 
x0451_0A,x0554_0A,x0556_0A,x0566_0A,x0310_0A,x0416_0A

>  <original SMILES>  (45) 
Cc1cc(C(=O)NCC2(NC(=O)CCl)CCCCCC2)nn1C(C)(C)C

>  <rationale>  (45) 
info info set:ROCS-cov2;Warhead 1.5909650436134666Å to Cys110:SG; hbond:S125+T126; hydroph_interaction:Y89+Y90+P107+D39; 

>  <∆∆G>  (45) 
-0.023235

>  <comRMSD>  (45) 
1.222403

>  <ROCS_TanimotoCombo>  (45) 
0.52

>  <ROCS_ShapeTanimoto>  (45) 
0.352

>  <ROCS_ColorTanimoto>  (45) 
0.168

>  <distance>  (45) 
1.590965

$$$$
