ver_1.2
     RDKit          3D

 14 15  0  0  0  0  0  0  0  0999 V2000
   -2.6228   -2.0514   -0.7741 C   0  0  0  0  0  0  0  0  0  0  0  0
   -2.0209   -0.7526   -0.5292 N   0  0  0  0  0  0  0  0  0  0  0  0
   -2.6750    0.4218   -0.5852 C   0  0  0  0  0  0  0  0  0  0  0  0
   -1.8256    1.4230   -0.3072 N   0  0  0  0  0  0  0  0  0  0  0  0
   -0.5959    0.9168   -0.0635 C   0  0  0  0  0  0  0  0  0  0  0  0
   -0.7465   -0.4575   -0.2101 C   0  0  0  0  0  0  0  0  0  0  0  0
    0.3605   -1.2455   -0.0177 C   0  0  0  0  0  0  0  0  0  0  0  0
    0.2345   -2.4862   -0.1477 O   0  0  0  0  0  0  0  0  0  0  0  0
    1.5201   -0.6448    0.2997 N   0  0  0  0  0  0  0  0  0  0  0  0
    1.6466    0.6870    0.4371 C   0  0  0  0  0  0  0  0  0  0  0  0
    2.7362    1.2417    0.7346 O   0  0  0  0  0  0  0  0  0  0  0  0
    0.5873    1.4816    0.2564 N   0  0  0  0  0  0  0  0  0  0  0  0
    0.7113    2.9129    0.4013 C   0  0  0  0  0  0  0  0  0  0  0  0
    2.6902   -1.4467    0.5055 C   0  0  0  0  0  0  0  0  0  0  0  0
  1  2  1  0
  2  3  1  0
  3  4  2  0
  4  5  1  0
  5  6  2  0
  6  7  1  0
  7  8  2  0
  7  9  1  0
  9 10  1  0
 10 11  2  0
 10 12  1  0
 12 13  1  0
  9 14  1  0
  6  2  1  0
 12  5  1  0
M  END
>  <ref_url>  (1) 
https://www.example.com

>  <submitter_name>  (1) 
Matteo Ferla

>  <submitter_email>  (1) 
matteo.ferla@stats.ox.ac.uk

>  <submitter_institution>  (1) 
University of Oxford

>  <generation_date>  (1) 
2023-11-14

>  <method>  (1) 
A71-Fragmenstein

>  <rationale>  (1) 
rationale

>  <cluster_rank>  (1) 
cluster_rank

>  <N_interactions>  (1) 
N_interactions

>  <N_interactions_lost>  (1) 
N_interactions_lost

>  <∆∆G>  (1) 
∆∆G

>  <comRMSD>  (1) 
comRMSD

>  <N_rotatable_bonds>  (1) 
N_rotatable_bonds

>  <N_unconstrained_atoms>  (1) 
N_unconstrained_atoms

>  <N_constrained_atoms>  (1) 
N_constrained_atoms

>  <price>  (1) 
List price in USD from EnamineStore

$$$$
Z57189107
     RDKit          3D

 15 16  0  0  0  0  0  0  0  0999 V2000
   11.9170   14.5440   22.4290 C   0  0  0  0  0  0  0  0  0  0  0  0
   11.1560   13.7200   23.4940 C   0  0  0  0  0  0  0  0  0  0  0  0
   11.1830   14.0140   24.6800 O   0  0  0  0  0  0  0  0  0  0  0  0
   10.4990   12.6810   22.8930 N   0  0  0  0  0  0  0  0  0  0  0  0
    9.8710   11.5410   23.4490 C   0  0  0  0  0  0  0  0  0  0  0  0
   10.3990   10.1980   22.9990 C   0  0  0  0  0  0  0  0  0  0  0  0
    9.8480    9.0530   23.4670 C   0  0  0  0  0  0  0  0  0  0  0  0
    8.8270    9.1720   24.3330 C   0  0  0  0  0  0  0  0  0  0  0  0
    8.3890    8.0060   24.7170 F   0  0  0  0  0  0  0  0  0  0  0  0
    8.2560   10.3420   24.8120 C   0  0  0  0  0  0  0  0  0  0  0  0
    7.0970   10.1460   25.7800 C   0  0  0  0  0  0  0  0  0  0  0  0
    6.3660   11.3640   26.3960 C   0  0  0  0  0  0  0  0  0  0  0  0
    6.9480   12.5610   25.9170 C   0  0  0  0  0  0  0  0  0  0  0  0
    8.1320   12.6750   24.9240 C   0  0  0  0  0  0  0  0  0  0  0  0
    8.7650   11.5800   24.3870 C   0  0  0  0  0  0  0  0  0  0  0  0
  1  2  1  0
  2  3  2  0
  2  4  1  0
  4  5  1  0
  5  6  2  0
  6  7  1  0
  7  8  2  0
  8  9  1  0
  8 10  1  0
 10 11  2  0
 11 12  1  0
 12 13  2  0
 13 14  1  0
 14 15  2  0
 15  5  1  0
 15 10  1  0
A    1
 C1 
A    2
 C2 
A    3
 O1 
A    4
 N1 
A    5
 C3 
A    6
 C4 
A    7
 C5 
A    8
 C6 
A    9
 F1 
A   10
 C7 
A   11
 C8 
A   12
 C9 
A   13
 C10
A   14
 C11
A   15
 C12
M  END
>  <ref_pdb>  (2) 
x0554_0A

>  <ref_mols>  (2) 
x0554_0A,x0451_0A

>  <original SMILES>  (2) 
CC(=O)Nc1ccc(F)c2ccccc12

>  <rationale>  (2) 
info cluster #5 (rank 1); halogenbond:D109; hbond:S125; hydroph_interaction:Y89+V124; 

>  <cluster_rank>  (2) 
1

>  <N_interactions>  (2) 
4

>  <N_interactions_lost>  (2) 
1

>  <∆∆G>  (2) 
-6.592294

>  <comRMSD>  (2) 
0.799959

>  <N_rotatable_bonds>  (2) 
2

>  <N_unconstrained_atoms>  (2) 
1

>  <N_constrained_atoms>  (2) 
16

>  <price>  (2) 
163

$$$$
Z1509204059
     RDKit          3D

 15 16  0  0  0  0  0  0  0  0999 V2000
   11.9890   14.5250   21.9300 C   0  0  0  0  0  0  0  0  0  0  0  0
   11.5500   13.6910   23.1040 C   0  0  0  0  0  0  0  0  0  0  0  0
   11.3750   14.1980   24.2060 O   0  0  0  0  0  0  0  0  0  0  0  0
   11.3610   12.3680   22.8020 N   0  0  0  0  0  0  0  0  0  0  0  0
   10.3880   11.5830   23.4090 C   0  0  0  0  0  0  0  0  0  0  0  0
   10.2050   10.2080   23.2040 C   0  0  0  0  0  0  0  0  0  0  0  0
    9.1890    9.5400   23.8810 C   0  0  0  0  0  0  0  0  0  0  0  0
    9.0100    8.1920   23.6660 C   0  0  0  0  0  0  0  0  0  0  0  0
    8.3750   10.2860   24.7660 C   0  0  0  0  0  0  0  0  0  0  0  0
    7.3340    9.7940   25.5350 C   0  0  0  0  0  0  0  0  0  0  0  0
    6.5720   10.5900   26.3670 C   0  0  0  0  0  0  0  0  0  0  0  0
    6.8500   11.9310   26.4510 C   0  0  0  0  0  0  0  0  0  0  0  0
    7.8910   12.4500   25.7060 C   0  0  0  0  0  0  0  0  0  0  0  0
    8.6650   11.6520   24.8630 C   0  0  0  0  0  0  0  0  0  0  0  0
    9.6210   12.2640   24.2210 N   0  0  0  0  0  0  0  0  0  0  0  0
  1  2  1  0
  2  3  2  0
  2  4  1  0
  4  5  1  0
  5  6  2  0
  6  7  1  0
  7  8  1  0
  7  9  2  0
  9 10  1  0
 10 11  2  0
 11 12  1  0
 12 13  2  0
 13 14  1  0
 14 15  2  0
 15  5  1  0
 14  9  1  0
A    1
 C1 
A    2
 C2 
A    3
 O1 
A    4
 N1 
A    5
 C3 
A    6
 C4 
A    7
 C5 
A    8
 C6 
A    9
 C7 
A   10
 C8 
A   11
 C9 
A   12
 C10
A   13
 C11
A   14
 C12
A   15
 N2 
M  END
>  <ref_pdb>  (3) 
x0554_0A

>  <ref_mols>  (3) 
x0451_0A,x0554_0A

>  <original SMILES>  (3) 
CC(=O)Nc1cc(C)c2ccccc2n1

>  <rationale>  (3) 
info cluster #8 (rank 1); hbond:S125; hydroph_interaction:Y89+D109+V124; 

>  <cluster_rank>  (3) 
1

>  <N_interactions>  (3) 
4

>  <N_interactions_lost>  (3) 
1

>  <∆∆G>  (3) 
-10.049581

>  <comRMSD>  (3) 
0.932843

>  <N_rotatable_bonds>  (3) 
3

>  <N_unconstrained_atoms>  (3) 
2

>  <N_constrained_atoms>  (3) 
15

>  <price>  (3) 
0

$$$$
PV_006093142965
     RDKit          3D

 14 14  0  0  0  0  0  0  0  0999 V2000
   10.1630   15.6130   19.2370 N   0  0  0  0  0  0  0  0  0  0  0  0
   10.7230   14.8110   20.1950 C   0  0  0  0  0  0  0  0  0  0  0  0
   11.9070   14.2080   20.0430 N   0  0  0  0  0  0  0  0  0  0  0  0
    9.9940   14.6490   21.3370 N   0  0  0  0  0  0  0  0  0  0  0  0
   10.4080   14.2620   22.6140 C   0  0  0  0  0  0  0  0  0  0  0  0
   11.5270   14.4590   23.0450 O   0  0  0  0  0  0  0  0  0  0  0  0
    9.2990   13.6410   23.4390 C   0  0  1  0  0  0  0  0  0  0  0  0
    8.0080   14.0810   22.8630 N   0  0  0  0  0  0  0  0  0  0  0  0
    9.1970   12.2490   23.7810 C   0  0  0  0  0  0  0  0  0  0  0  0
   10.1140   11.1580   23.3310 C   0  0  0  0  0  0  0  0  0  0  0  0
    9.9420    9.8010   23.7110 C   0  0  0  0  0  0  0  0  0  0  0  0
    8.8040    9.4820   24.5950 C   0  0  0  0  0  0  0  0  0  0  0  0
    7.9650   10.5120   25.0050 C   0  0  0  0  0  0  0  0  0  0  0  0
    8.1320   11.8490   24.6270 C   0  0  0  0  0  0  0  0  0  0  0  0
  1  2  2  3
  2  3  1  0
  2  4  1  0
  4  5  1  0
  5  6  2  0
  5  7  1  0
  7  8  1  6
  7  9  1  0
  9 10  2  0
 10 11  1  0
 11 12  2  0
 12 13  1  0
 13 14  2  0
 14  9  1  0
A    1
 N1 
A    2
 C1 
A    3
 N2 
A    4
 N3 
A    5
 C2 
A    6
 O1 
A    7
 C3 
A    8
 N4 
A    9
 C4 
A   10
 C5 
A   11
 C6 
A   12
 C7 
A   13
 C8 
A   14
 C9 
M  END
>  <ref_pdb>  (4) 
x0554_0A

>  <ref_mols>  (4) 
x0566_0A

>  <original SMILES>  (4) 
N=C(N)NC(=O)[C@@H](N)c1ccccc1

>  <rationale>  (4) 
info cluster #6 (rank 1); hbond:H21+G127; saltbridge:D39; 

>  <cluster_rank>  (4) 
1

>  <N_interactions>  (4) 
4

>  <N_interactions_lost>  (4) 
0

>  <∆∆G>  (4) 
-5.05928

>  <comRMSD>  (4) 
0.939514

>  <N_rotatable_bonds>  (4) 
3

>  <N_unconstrained_atoms>  (4) 
2

>  <N_constrained_atoms>  (4) 
13

>  <price>  (4) 
0

$$$$
Z1426819182
     RDKit          3D

 15 16  0  0  0  0  0  0  0  0999 V2000
   10.6970    9.5060   22.5330 C   0  0  0  0  0  0  0  0  0  0  0  0
    9.7330   10.0500   23.4540 C   0  0  0  0  0  0  0  0  0  0  0  0
    8.9890    8.9800   24.0920 C   0  0  0  0  0  0  0  0  0  0  0  0
    8.0460    9.2740   24.9770 C   0  0  0  0  0  0  0  0  0  0  0  0
    7.7460   10.6520   25.2980 C   0  0  0  0  0  0  0  0  0  0  0  0
    6.7340   10.7970   26.2160 C   0  0  0  0  0  0  0  0  0  0  0  0
    6.3440   12.0440   26.6090 C   0  0  0  0  0  0  0  0  0  0  0  0
    6.9820   13.1520   26.0760 C   0  0  0  0  0  0  0  0  0  0  0  0
    8.0190   13.0040   25.1380 C   0  0  0  0  0  0  0  0  0  0  0  0
    8.4490   11.7320   24.7000 C   0  0  0  0  0  0  0  0  0  0  0  0
    9.4920   11.4130   23.7390 C   0  0  0  0  0  0  0  0  0  0  0  0
   10.2390   12.3740   23.0900 N   0  0  0  0  0  0  0  0  0  0  0  0
   10.9590   13.4290   23.6020 C   0  0  0  0  0  0  0  0  0  0  0  0
   11.6360   14.0910   22.6130 N   0  0  0  0  0  0  0  0  0  0  0  0
   11.0500   13.8080   24.7530 O   0  0  0  0  0  0  0  0  0  0  0  0
  1  2  1  0
  2  3  2  0
  3  4  1  0
  4  5  2  0
  5  6  1  0
  6  7  2  0
  7  8  1  0
  8  9  2  0
  9 10  1  0
 10 11  2  0
 11 12  1  0
 12 13  1  0
 13 14  1  0
 13 15  2  0
 11  2  1  0
 10  5  1  0
A    1
 C1 
A    2
 C2 
A    3
 C3 
A    4
 C4 
A    5
 C5 
A    6
 C6 
A    7
 C7 
A    8
 C8 
A    9
 C9 
A   10
 C10
A   11
 C11
A   12
 N1 
A   13
 C12
A   14
 N2 
A   15
 O1 
M  END
>  <ref_pdb>  (5) 
x0554_0A

>  <ref_mols>  (5) 
x0554_0A,x0451_0A

>  <original SMILES>  (5) 
Cc1ccc2ccccc2c1NC(N)=O

>  <rationale>  (5) 
info cluster #0 (rank 1); hbond:S125; hydroph_interaction:A110+V124; 

>  <cluster_rank>  (5) 
1

>  <N_interactions>  (5) 
4

>  <N_interactions_lost>  (5) 
1

>  <∆∆G>  (5) 
-6.897886

>  <comRMSD>  (5) 
0.806523

>  <N_rotatable_bonds>  (5) 
2

>  <N_unconstrained_atoms>  (5) 
1

>  <N_constrained_atoms>  (5) 
15

>  <price>  (5) 
0

$$$$
PV_002910358312
     RDKit          3D

 17 19  0  0  0  0  0  0  0  0999 V2000
   11.6640   15.7880   21.6810 C   0  0  0  0  0  0  0  0  0  0  0  0
   11.1410   14.8980   22.8000 C   0  0  0  0  0  0  0  0  0  0  0  0
   10.6600   13.6970   22.4530 N   0  0  0  0  0  0  0  0  0  0  0  0
   10.2330   13.0530   23.5780 C   0  0  0  0  0  0  0  0  0  0  0  0
    9.6600   11.8460   23.7750 C   0  0  0  0  0  0  0  0  0  0  0  0
   10.0190   10.5180   23.1630 C   0  0  0  0  0  0  0  0  0  0  0  0
    9.1290    9.6550   23.7150 N   0  0  0  0  0  0  0  0  0  0  0  0
    9.0830    8.2490   23.4210 C   0  0  0  0  0  0  0  0  0  0  0  0
    8.2370   10.3520   24.6430 C   0  0  0  0  0  0  0  0  0  0  0  0
    7.2130    9.8870   25.4180 C   0  0  0  0  0  0  0  0  0  0  0  0
    6.4280   10.8200   26.3000 C   0  0  0  0  0  0  0  0  0  0  0  0
    6.8130   12.1490   26.2730 C   0  0  0  0  0  0  0  0  0  0  0  0
    7.8670   12.5860   25.4730 C   0  0  0  0  0  0  0  0  0  0  0  0
    8.5830   11.6900   24.6550 C   0  0  0  0  0  0  0  0  0  0  0  0
   10.4260   13.7990   24.6460 N   0  0  0  0  0  0  0  0  0  0  0  0
   10.9740   14.9260   24.2050 N   0  0  0  0  0  0  0  0  0  0  0  0
   11.2110   15.7970   25.3300 C   0  0  0  0  0  0  0  0  0  0  0  0
  1  2  1  0
  2  3  2  0
  3  4  1  0
  4  5  1  0
  5  6  2  0
  6  7  1  0
  7  8  1  0
  7  9  1  0
  9 10  2  0
 10 11  1  0
 11 12  2  0
 12 13  1  0
 13 14  2  0
  4 15  2  0
 15 16  1  0
 16 17  1  0
 16  2  1  0
 14  5  1  0
 14  9  1  0
A    1
 C1 
A    2
 C2 
A    3
 N1 
A    4
 C3 
A    5
 C4 
A    6
 C5 
A    7
 N2 
A    8
 C6 
A    9
 C7 
A   10
 C8 
A   11
 C9 
A   12
 C10
A   13
 C11
A   14
 C12
A   15
 N3 
A   16
 N4 
A   17
 C13
M  END
>  <ref_pdb>  (6) 
x0554_0A

>  <ref_mols>  (6) 
x0451_0A

>  <original SMILES>  (6) 
Cc1nc(-c2cn(C)c3ccccc23)nn1C

>  <rationale>  (6) 
info cluster #2 (rank 1); hbond:S87; hydroph_interaction:Y89+Y90; saltbridge:E88; 

>  <cluster_rank>  (6) 
1

>  <N_interactions>  (6) 
4

>  <N_interactions_lost>  (6) 
1

>  <∆∆G>  (6) 
-7.81437

>  <comRMSD>  (6) 
0.883492

>  <N_rotatable_bonds>  (6) 
4

>  <N_unconstrained_atoms>  (6) 
1

>  <N_constrained_atoms>  (6) 
18

>  <price>  (6) 
0

$$$$
Z3514569097
     RDKit          3D

 16 16  0  0  0  0  0  0  0  0999 V2000
   10.0190    8.9180   23.5880 C   0  0  0  0  0  0  0  0  0  0  0  0
    9.2760   10.1540   24.0730 C   0  0  0  0  0  0  0  0  0  0  0  0
    8.1760    9.9170   25.1130 C   0  0  0  0  0  0  0  0  0  0  0  0
    7.5640   11.0930   25.4680 N   0  0  0  0  0  0  0  0  0  0  0  0
    7.8630   12.3440   24.9940 C   0  0  0  0  0  0  0  0  0  0  0  0
    6.8910   13.6030   25.6540 Cl  0  0  0  0  0  0  0  0  0  0  0  0
    8.8570   12.5390   24.0780 C   0  0  0  0  0  0  0  0  0  0  0  0
    9.1110   13.7940   23.6590 O   0  0  0  0  0  0  0  0  0  0  0  0
   10.3320   13.9700   22.9790 C   0  0  0  0  0  0  0  0  0  0  0  0
   10.5860   15.2120   22.4510 C   0  0  0  0  0  0  0  0  0  0  0  0
   11.1430   16.0180   23.1820 O   0  0  0  0  0  0  0  0  0  0  0  0
   10.1520   15.5250   21.1730 C   0  0  0  0  0  0  0  0  0  0  0  0
    8.7290   15.3780   20.9550 C   0  0  0  0  0  0  0  0  0  0  0  0
   10.9760   14.7710   20.1180 C   0  0  0  0  0  0  0  0  0  0  0  0
   10.3310   17.0050   20.9220 C   0  0  0  0  0  0  0  0  0  0  0  0
    9.5640   11.4310   23.6170 C   0  0  0  0  0  0  0  0  0  0  0  0
  1  2  1  0
  2  3  2  0
  3  4  1  0
  4  5  2  0
  5  6  1  0
  5  7  1  0
  7  8  1  0
  8  9  1  0
  9 10  1  0
 10 11  2  0
 10 12  1  0
 12 13  1  0
 12 14  1  0
 12 15  1  0
  7 16  2  0
 16  2  1  0
A    1
 C1 
A    2
 C2 
A    3
 C3 
A    4
 N1 
A    5
 C4 
A    6
CL1 
A    7
 C5 
A    8
 O1 
A    9
 C6 
A   10
 C7 
A   11
 O2 
A   12
 C8 
A   13
 C9 
A   14
 C10
A   15
 C11
A   16
 C12
M  END
>  <ref_pdb>  (7) 
x0554_0A

>  <ref_mols>  (7) 
x0416_0A

>  <original SMILES>  (7) 
Cc1cnc(Cl)c(OCC(=O)C(C)(C)C)c1

>  <rationale>  (7) 
info cluster #7 (rank 1); hbond:S87; hydroph_interaction:Y90+D109+V124+V84; 

>  <cluster_rank>  (7) 
1

>  <N_interactions>  (7) 
5

>  <N_interactions_lost>  (7) 
1

>  <∆∆G>  (7) 
-7.542305

>  <comRMSD>  (7) 
0.533608

>  <N_rotatable_bonds>  (7) 
4

>  <N_unconstrained_atoms>  (7) 
3

>  <N_constrained_atoms>  (7) 
13

>  <price>  (7) 
0

$$$$
Z3521588488
     RDKit          3D

 15 15  0  0  0  0  0  0  0  0999 V2000
    8.9650    8.6010   23.7770 C   0  0  0  0  0  0  0  0  0  0  0  0
    8.7790    9.9960   24.2630 C   0  0  0  0  0  0  0  0  0  0  0  0
    9.8420   10.9710   23.7840 C   0  0  0  0  0  0  0  0  0  0  0  0
    9.7870   12.2960   24.1750 C   0  0  0  0  0  0  0  0  0  0  0  0
   10.8230   13.2570   23.7400 C   0  0  0  0  0  0  0  0  0  0  0  0
   10.6160   13.6700   22.3870 N   0  0  0  0  0  0  0  0  0  0  0  0
   10.5670   15.0090   22.1260 C   0  0  0  0  0  0  0  0  0  0  0  0
   10.8520   15.8520   22.9760 O   0  0  0  0  0  0  0  0  0  0  0  0
   10.1310   15.3490   20.7930 C   0  0  2  0  0  0  0  0  0  0  0  0
   10.9610   14.9540   19.7500 C   0  0  0  0  0  0  0  0  0  0  0  0
    9.9180   16.8130   20.7200 N   0  0  0  0  0  0  0  0  0  0  0  0
    8.7260   12.6750   24.9960 C   0  0  0  0  0  0  0  0  0  0  0  0
    7.7650   11.8500   25.4420 N   0  0  0  0  0  0  0  0  0  0  0  0
    7.8000   10.5610   25.0910 C   0  0  0  0  0  0  0  0  0  0  0  0
    6.4720    9.8190   25.8460 Cl  0  0  0  0  0  0  0  0  0  0  0  0
  1  2  1  0
  2  3  2  0
  3  4  1  0
  4  5  1  0
  5  6  1  0
  6  7  1  0
  7  8  2  0
  7  9  1  0
  9 10  1  6
  9 11  1  0
  4 12  2  0
 12 13  1  0
 13 14  2  0
 14 15  1  0
 14  2  1  0
A    1
 C1 
A    2
 C2 
A    3
 C3 
A    4
 C4 
A    5
 C5 
A    6
 N1 
A    7
 C6 
A    8
 O1 
A    9
 C7 
A   10
 C8 
A   11
 N2 
A   12
 C9 
A   13
 N3 
A   14
 C10
A   15
CL1 
M  END
>  <ref_pdb>  (8) 
x0554_0A

>  <ref_mols>  (8) 
x0416_0A

>  <original SMILES>  (8) 
Cc1cc(CNC(=O)[C@H](C)N)cnc1Cl

>  <rationale>  (8) 
info cluster #3 (rank 1); hbond:S87+S125; hydroph_interaction:Y90+D109; 

>  <cluster_rank>  (8) 
1

>  <N_interactions>  (8) 
5

>  <N_interactions_lost>  (8) 
1

>  <∆∆G>  (8) 
-9.260998

>  <comRMSD>  (8) 
0.812341

>  <N_rotatable_bonds>  (8) 
6

>  <N_unconstrained_atoms>  (8) 
3

>  <N_constrained_atoms>  (8) 
12

>  <price>  (8) 
0

$$$$
Z210104396
     RDKit          3D

 15 16  0  0  0  0  0  0  0  0999 V2000
    8.7600    7.9160   23.4150 C   0  0  0  0  0  0  0  0  0  0  0  0
    9.9460    8.8000   23.3100 C   0  0  0  0  0  0  0  0  0  0  0  0
    9.6520   10.1620   23.6860 N   0  0  0  0  0  0  0  0  0  0  0  0
   10.4010   11.2850   23.2370 C   0  0  0  0  0  0  0  0  0  0  0  0
    9.8680   12.4270   23.7610 C   0  0  0  0  0  0  0  0  0  0  0  0
   10.4400   13.7810   23.4600 C   0  0  0  0  0  0  0  0  0  0  0  0
   10.6660   14.5730   24.6160 O   0  0  0  0  0  0  0  0  0  0  0  0
   10.6720   14.0970   22.1510 O   0  0  0  0  0  0  0  0  0  0  0  0
   11.9950   14.5760   21.8910 C   0  0  0  0  0  0  0  0  0  0  0  0
    8.7560   12.0300   24.5750 C   0  0  0  0  0  0  0  0  0  0  0  0
    7.8410   12.7500   25.3540 C   0  0  0  0  0  0  0  0  0  0  0  0
    6.7770   12.0290   26.1000 C   0  0  0  0  0  0  0  0  0  0  0  0
    6.7240   10.6270   25.9990 C   0  0  0  0  0  0  0  0  0  0  0  0
    7.6650    9.9080   25.1990 C   0  0  0  0  0  0  0  0  0  0  0  0
    8.6420   10.6140   24.5140 C   0  0  0  0  0  0  0  0  0  0  0  0
  1  2  1  0
  2  3  1  0
  3  4  1  0
  4  5  2  0
  5  6  1  0
  6  7  2  0
  6  8  1  0
  8  9  1  0
  5 10  1  0
 10 11  2  0
 11 12  1  0
 12 13  2  0
 13 14  1  0
 14 15  2  0
 15  3  1  0
 15 10  1  0
A    1
 C1 
A    2
 C2 
A    3
 N1 
A    4
 C3 
A    5
 C4 
A    6
 C5 
A    7
 O1 
A    8
 O2 
A    9
 C6 
A   10
 C7 
A   11
 C8 
A   12
 C9 
A   13
 C10
A   14
 C11
A   15
 C12
M  END
>  <ref_pdb>  (9) 
x0554_0A

>  <ref_mols>  (9) 
x0451_0A,x0451_0A

>  <original SMILES>  (9) 
CCn1cc(C(=O)OC)c2ccccc21

>  <rationale>  (9) 
info cluster #4 (rank 1); hydroph_interaction:D109+V124; saltbridge:H21; 

>  <cluster_rank>  (9) 
1

>  <N_interactions>  (9) 
3

>  <N_interactions_lost>  (9) 
0

>  <∆∆G>  (9) 
-8.25129

>  <comRMSD>  (9) 
0.495844

>  <N_rotatable_bonds>  (9) 
4

>  <N_unconstrained_atoms>  (9) 
1

>  <N_constrained_atoms>  (9) 
14

>  <price>  (9) 
0

$$$$
PV_002906443867
     RDKit          3D

 15 16  0  0  0  0  0  0  0  0999 V2000
    9.6750   15.2520   21.5500 C   0  0  0  0  0  0  0  0  0  0  0  0
    9.1470   14.1210   22.2640 N   0  0  0  0  0  0  0  0  0  0  0  0
   10.0250   13.2730   22.9140 C   0  0  0  0  0  0  0  0  0  0  0  0
   11.2400   13.4100   22.9460 O   0  0  0  0  0  0  0  0  0  0  0  0
    9.4690   12.0510   23.6480 C   0  0  0  0  0  0  0  0  0  0  0  0
    8.2740   12.2470   24.5560 C   0  0  0  0  0  0  0  0  0  0  0  0
    7.3900   13.6920   24.9320 S   0  0  0  0  0  0  0  0  0  0  0  0
    6.3260   12.8790   25.9460 C   0  0  0  0  0  0  0  0  0  0  0  0
    5.0640   13.7400   26.7410 Cl  0  0  0  0  0  0  0  0  0  0  0  0
    6.6560   11.4000   26.0140 C   0  0  0  0  0  0  0  0  0  0  0  0
    5.7970   10.2360   26.9290 Cl  0  0  0  0  0  0  0  0  0  0  0  0
    7.7600   11.1280   25.2150 C   0  0  0  0  0  0  0  0  0  0  0  0
    8.3490    9.8810   25.0360 C   0  0  0  0  0  0  0  0  0  0  0  0
    9.4600    9.6930   24.1950 C   0  0  0  0  0  0  0  0  0  0  0  0
   10.0190   10.7690   23.5020 C   0  0  0  0  0  0  0  0  0  0  0  0
  1  2  1  0
  2  3  1  0
  3  4  2  0
  3  5  1  0
  5  6  2  0
  6  7  1  0
  7  8  1  0
  8  9  1  0
  8 10  2  0
 10 11  1  0
 10 12  1  0
 12 13  2  0
 13 14  1  0
 14 15  2  0
 15  5  1  0
 12  6  1  0
A    1
 C1 
A    2
 N1 
A    3
 C2 
A    4
 O1 
A    5
 C3 
A    6
 C4 
A    7
 S1 
A    8
 C5 
A    9
CL1 
A   10
 C6 
A   11
CL2 
A   12
 C7 
A   13
 C8 
A   14
 C9 
A   15
 C10
M  END
>  <ref_pdb>  (10) 
x0554_0A

>  <ref_mols>  (10) 
x0566_0A,x0556_0A

>  <original SMILES>  (10) 
CNC(=O)c1cccc2c(Cl)c(Cl)sc12

>  <rationale>  (10) 
info cluster #1 (rank 1); halogenbond:S105; hbond:T126; 

>  <cluster_rank>  (10) 
1

>  <N_interactions>  (10) 
2

>  <N_interactions_lost>  (10) 
0

>  <∆∆G>  (10) 
-4.943592

>  <comRMSD>  (10) 
0.571631

>  <N_rotatable_bonds>  (10) 
2

>  <N_unconstrained_atoms>  (10) 
1

>  <N_constrained_atoms>  (10) 
14

>  <price>  (10) 
0

$$$$
Z4005719641
     RDKit          3D

 20 21  0  0  0  0  0  0  0  0999 V2000
    7.2190   13.0530   25.7850 C   0  0  0  0  0  0  0  0  0  0  0  0
    8.2800   13.1040   24.8400 O   0  0  0  0  0  0  0  0  0  0  0  0
    8.8410   11.8950   24.5310 C   0  0  0  0  0  0  0  0  0  0  0  0
    8.1590   10.5530   24.8460 C   0  0  0  0  0  0  0  0  0  0  0  0
    8.8170    9.3770   24.5000 C   0  0  0  0  0  0  0  0  0  0  0  0
   10.0510    9.4090   23.8760 C   0  0  0  0  0  0  0  0  0  0  0  0
   10.6600   10.6070   23.5940 C   0  0  0  0  0  0  0  0  0  0  0  0
   10.1160   11.8610   23.8990 C   0  0  0  0  0  0  0  0  0  0  0  0
   10.9140   12.9530   23.5510 C   0  0  0  0  0  0  0  0  0  0  0  0
   10.4360   13.6020   22.3180 N   0  0  0  0  0  0  0  0  0  0  0  0
   10.4930   14.9760   22.1260 C   0  0  0  0  0  0  0  0  0  0  0  0
   10.8140   15.7940   22.9870 O   0  0  0  0  0  0  0  0  0  0  0  0
   10.1010   15.4260   20.7100 C   0  0  2  0  0  0  0  0  0  0  0  0
   10.9850   14.9290   19.7770 C   0  0  0  0  0  0  0  0  0  0  0  0
   10.0600   16.9070   20.6340 N   0  0  0  0  0  0  0  0  0  0  0  0
   12.3620   12.4720   23.2810 C   0  0  0  0  0  0  0  0  0  0  0  0
   13.3440   12.9460   24.2910 C   0  0  0  0  0  0  0  0  0  0  0  0
   12.8800   12.7990   25.6410 O   0  0  0  0  0  0  0  0  0  0  0  0
   11.6540   13.4670   25.9480 C   0  0  0  0  0  0  0  0  0  0  0  0
   10.9510   14.0020   24.7120 C   0  0  0  0  0  0  0  0  0  0  0  0
  1  2  1  0
  2  3  1  0
  3  4  2  0
  4  5  1  0
  5  6  2  0
  6  7  1  0
  7  8  2  0
  8  9  1  0
  9 10  1  0
 10 11  1  0
 11 12  2  0
 11 13  1  0
 13 14  1  6
 13 15  1  0
  9 16  1  0
 16 17  1  0
 17 18  1  0
 18 19  1  0
 19 20  1  0
  8  3  1  0
 20  9  1  0
A    1
 C1 
A    2
 O1 
A    3
 C2 
A    4
 C3 
A    5
 C4 
A    6
 C5 
A    7
 C6 
A    8
 C7 
A    9
 C8 
A   10
 N1 
A   11
 C9 
A   12
 O2 
A   13
 C10
A   14
 C11
A   15
 N2 
A   16
 C12
A   17
 C13
A   18
 O3 
A   19
 C14
A   20
 C15
M  END
>  <ref_pdb>  (11) 
x0554_0A

>  <ref_mols>  (11) 
x0554_0A

>  <original SMILES>  (11) 
COc1ccccc1C1(NC(=O)C(C)N)CCOCC1

>  <rationale>  (11) 
info cluster #9 (rank 1); hbond:G108+S87+T126; hydroph_interaction:A110; 

>  <cluster_rank>  (11) 
1

>  <N_interactions>  (11) 
5

>  <N_interactions_lost>  (11) 
1

>  <∆∆G>  (11) 
-8.963018

>  <comRMSD>  (11) 
0.689067

>  <N_rotatable_bonds>  (11) 
7

>  <N_unconstrained_atoms>  (11) 
2

>  <N_constrained_atoms>  (11) 
20

>  <price>  (11) 
0

$$$$
Z28155836
     RDKit          3D

 15 16  0  0  0  0  0  0  0  0999 V2000
   12.2230   14.9070   21.7820 C   0  0  0  0  0  0  0  0  0  0  0  0
   10.9820   14.8540   22.6540 C   0  0  0  0  0  0  0  0  0  0  0  0
   10.8570   13.6000   23.5310 C   0  0  0  0  0  0  0  0  0  0  0  0
   10.9850   13.7310   24.7400 O   0  0  0  0  0  0  0  0  0  0  0  0
   10.6070   12.4170   22.9410 N   0  0  0  0  0  0  0  0  0  0  0  0
    9.9010   11.3860   23.4930 C   0  0  0  0  0  0  0  0  0  0  0  0
   10.2850    9.9540   23.0760 C   0  0  0  0  0  0  0  0  0  0  0  0
    9.6460    8.8400   23.5540 C   0  0  0  0  0  0  0  0  0  0  0  0
    8.5670    9.0850   24.4940 C   0  0  0  0  0  0  0  0  0  0  0  0
    8.1800   10.3410   24.8930 C   0  0  0  0  0  0  0  0  0  0  0  0
    7.1180   10.2930   25.7850 C   0  0  0  0  0  0  0  0  0  0  0  0
    6.5530   11.5130   26.3310 C   0  0  0  0  0  0  0  0  0  0  0  0
    7.1290   12.7100   25.9160 C   0  0  0  0  0  0  0  0  0  0  0  0
    8.2190   12.7280   24.9990 C   0  0  0  0  0  0  0  0  0  0  0  0
    8.7940   11.5380   24.4430 C   0  0  0  0  0  0  0  0  0  0  0  0
  1  2  1  0
  2  3  1  0
  3  4  2  0
  3  5  1  0
  5  6  1  0
  6  7  2  0
  7  8  1  0
  8  9  2  0
  9 10  1  0
 10 11  2  0
 11 12  1  0
 12 13  2  0
 13 14  1  0
 14 15  2  0
 15  6  1  0
 15 10  1  0
A    1
 C1 
A    2
 C2 
A    3
 C3 
A    4
 O1 
A    5
 N1 
A    6
 C4 
A    7
 C5 
A    8
 C6 
A    9
 C7 
A   10
 C8 
A   11
 C9 
A   12
 C10
A   13
 C11
A   14
 C12
A   15
 C13
M  END
>  <ref_pdb>  (12) 
x0554_0A

>  <ref_mols>  (12) 
x0554_0A,x0451_0A

>  <original SMILES>  (12) 
CCC(=O)Nc1cccc2ccccc12

>  <rationale>  (12) 
info cluster #8 (rank 2); hbond:S125; hydroph_interaction:Y89+D109+V124; 

>  <cluster_rank>  (12) 
2

>  <N_interactions>  (12) 
4

>  <N_interactions_lost>  (12) 
1

>  <∆∆G>  (12) 
-9.009224

>  <comRMSD>  (12) 
0.826891

>  <N_rotatable_bonds>  (12) 
3

>  <N_unconstrained_atoms>  (12) 
1

>  <N_constrained_atoms>  (12) 
16

>  <price>  (12) 
0

$$$$
Z2458092266
     RDKit          3D

 18 19  0  0  0  0  0  0  0  0999 V2000
   12.3170   14.2580   22.1270 C   0  0  0  0  0  0  0  0  0  0  0  0
   10.8780   14.2470   22.2580 N   0  0  0  0  0  0  0  0  0  0  0  0
   10.3260   13.8850   23.5170 C   0  0  0  0  0  0  0  0  0  0  0  0
   10.2550   14.6950   24.4340 O   0  0  0  0  0  0  0  0  0  0  0  0
    9.8050   12.5110   23.7640 C   0  0  0  0  0  0  0  0  0  0  0  0
   10.3130   11.3060   23.2090 C   0  0  0  0  0  0  0  0  0  0  0  0
    9.5470   10.2590   23.6780 N   0  0  0  0  0  0  0  0  0  0  0  0
    9.7820    8.8810   23.2930 C   0  0  0  0  0  0  0  0  0  0  0  0
    8.5380   10.7440   24.5610 C   0  0  0  0  0  0  0  0  0  0  0  0
    7.4720    9.9730   25.3310 C   0  0  0  0  0  0  0  0  0  0  0  0
    6.5590   10.8510   26.1800 C   0  0  0  0  0  0  0  0  0  0  0  0
    6.7180   12.2210   26.2240 C   0  0  0  0  0  0  0  0  0  0  0  0
    7.8270   12.8930   25.4110 C   0  0  0  0  0  0  0  0  0  0  0  0
    8.6960   12.1400   24.6120 C   0  0  0  0  0  0  0  0  0  0  0  0
   10.1440   15.1200   21.2760 C   0  0  0  0  0  0  0  0  0  0  0  0
   10.5410   16.5720   21.3010 C   0  0  0  0  0  0  0  0  0  0  0  0
   10.4400   14.7300   19.8140 C   0  0  0  0  0  0  0  0  0  0  0  0
    8.6400   15.1750   21.5890 C   0  0  0  0  0  0  0  0  0  0  0  0
  1  2  1  0
  2  3  1  0
  3  4  2  0
  3  5  1  0
  5  6  2  0
  6  7  1  0
  7  8  1  0
  7  9  1  0
  9 10  2  0
 10 11  1  0
 11 12  2  0
 12 13  1  0
 13 14  2  0
  2 15  1  0
 15 16  1  0
 15 17  1  0
 15 18  1  0
 14  5  1  0
 14  9  1  0
A    1
 C1 
A    2
 N1 
A    3
 C2 
A    4
 O1 
A    5
 C3 
A    6
 C4 
A    7
 N2 
A    8
 C5 
A    9
 C6 
A   10
 C7 
A   11
 C8 
A   12
 C9 
A   13
 C10
A   14
 C11
A   15
 C12
A   16
 C13
A   17
 C14
A   18
 C15
M  END
>  <ref_pdb>  (13) 
x0554_0A

>  <ref_mols>  (13) 
x0451_0A

>  <original SMILES>  (13) 
CN(C(=O)c1cn(C)c2ccccc12)C(C)(C)C

>  <rationale>  (13) 
info cluster #2 (rank 2); hydroph_interaction:Y90+V84; 

>  <cluster_rank>  (13) 
2

>  <N_interactions>  (13) 
2

>  <N_interactions_lost>  (13) 
0

>  <∆∆G>  (13) 
-10.114999

>  <comRMSD>  (13) 
0.490468

>  <N_rotatable_bonds>  (13) 
3

>  <N_unconstrained_atoms>  (13) 
1

>  <N_constrained_atoms>  (13) 
17

>  <price>  (13) 
0

$$$$
Z56754686
     RDKit          3D

 12 12  0  0  0  0  0  0  0  0999 V2000
    6.5010   11.4830   26.0750 C   0  0  0  0  0  0  0  0  0  0  0  0
    7.6560   11.0410   25.2080 C   0  0  0  0  0  0  0  0  0  0  0  0
    7.7410    9.7080   25.0870 C   0  0  0  0  0  0  0  0  0  0  0  0
    8.7590    9.1280   24.3140 C   0  0  0  0  0  0  0  0  0  0  0  0
    9.6680    9.8700   23.6830 C   0  0  0  0  0  0  0  0  0  0  0  0
   10.7100    9.1950   22.9070 C   0  0  0  0  0  0  0  0  0  0  0  0
    9.6150   11.2880   23.7800 C   0  0  0  0  0  0  0  0  0  0  0  0
   10.5990   12.0640   23.0930 N   0  0  0  0  0  0  0  0  0  0  0  0
   11.0620   13.3220   23.3830 C   0  0  0  0  0  0  0  0  0  0  0  0
   11.6680   13.8660   22.2820 N   0  0  0  0  0  0  0  0  0  0  0  0
   10.9980   13.9480   24.4250 O   0  0  0  0  0  0  0  0  0  0  0  0
    8.5900   11.8650   24.5570 C   0  0  0  0  0  0  0  0  0  0  0  0
  1  2  1  0
  2  3  2  0
  3  4  1  0
  4  5  2  0
  5  6  1  0
  5  7  1  0
  7  8  1  0
  8  9  1  0
  9 10  1  0
  9 11  2  0
  7 12  2  0
 12  2  1  0
A    1
 C1 
A    2
 C2 
A    3
 C3 
A    4
 C4 
A    5
 C5 
A    6
 C6 
A    7
 C7 
A    8
 N1 
A    9
 C8 
A   10
 N2 
A   11
 O1 
A   12
 C9 
M  END
>  <ref_pdb>  (14) 
x0554_0A

>  <ref_mols>  (14) 
x0554_0A,x0310_0A

>  <original SMILES>  (14) 
Cc1ccc(C)c(NC(N)=O)c1

>  <rationale>  (14) 
info cluster #0 (rank 2); hbond:S125; hydroph_interaction:A110+V124; 

>  <cluster_rank>  (14) 
2

>  <N_interactions>  (14) 
4

>  <N_interactions_lost>  (14) 
1

>  <∆∆G>  (14) 
-8.835842

>  <comRMSD>  (14) 
0.671253

>  <N_rotatable_bonds>  (14) 
3

>  <N_unconstrained_atoms>  (14) 
1

>  <N_constrained_atoms>  (14) 
13

>  <price>  (14) 
0

$$$$
Z3018949571
     RDKit          3D

 13 13  0  0  0  0  0  0  0  0999 V2000
   12.0570   14.7820   20.4510 C   0  0  0  0  0  0  0  0  0  0  0  0
   11.6860   14.6530   21.9200 C   0  0  0  0  0  0  0  0  0  0  0  0
   11.1620   15.8820   22.4240 C   0  0  0  0  0  0  0  0  0  0  0  0
   10.7760   13.6380   22.1490 N   0  0  0  0  0  0  0  0  0  0  0  0
   10.1920   13.4130   23.4880 C   0  0  0  0  0  0  0  0  0  0  0  0
    9.7930   14.3140   24.2160 O   0  0  0  0  0  0  0  0  0  0  0  0
   10.1920   12.0180   23.8390 C   0  0  0  0  0  0  0  0  0  0  0  0
    9.1610   11.0350   24.1200 C   0  0  0  0  0  0  0  0  0  0  0  0
    7.8320   11.3660   24.1040 N   0  0  0  0  0  0  0  0  0  0  0  0
    9.7300    9.8070   24.3830 C   0  0  0  0  0  0  0  0  0  0  0  0
   11.0750    9.9280   24.3160 N   0  0  0  0  0  0  0  0  0  0  0  0
   11.2980   11.2500   23.9950 N   0  0  0  0  0  0  0  0  0  0  0  0
   12.6480   11.7550   23.8580 C   0  0  0  0  0  0  0  0  0  0  0  0
  1  2  1  0
  2  3  1  0
  2  4  1  0
  4  5  1  0
  5  6  2  0
  5  7  1  0
  7  8  2  0
  8  9  1  0
  8 10  1  0
 10 11  2  0
 11 12  1  0
 12 13  1  0
 12  7  1  0
A    1
 C1 
A    2
 C2 
A    3
 C3 
A    4
 N1 
A    5
 C4 
A    6
 O1 
A    7
 C5 
A    8
 C6 
A    9
 N2 
A   10
 C7 
A   11
 N3 
A   12
 N4 
A   13
 C8 
M  END
>  <ref_pdb>  (15) 
x0554_0A

>  <ref_mols>  (15) 
x0556_0A,x0451_0A

>  <original SMILES>  (15) 
CC(C)NC(=O)c1c(N)cnn1C

>  <rationale>  (15) 
info cluster #5 (rank 2); hbond:G108+A110+S105+S125+D109; hydroph_interaction:Y89; 

>  <cluster_rank>  (15) 
2

>  <N_interactions>  (15) 
7

>  <N_interactions_lost>  (15) 
1

>  <∆∆G>  (15) 
-6.082055

>  <comRMSD>  (15) 
0.941505

>  <N_rotatable_bonds>  (15) 
6

>  <N_unconstrained_atoms>  (15) 
4

>  <N_constrained_atoms>  (15) 
11

>  <price>  (15) 
0

$$$$
Z1904258091
     RDKit          3D

 18 19  0  0  0  0  0  0  0  0999 V2000
   15.1360   11.2770   25.0970 C   0  0  0  0  0  0  0  0  0  0  0  0
   14.9310   12.2580   26.2250 C   0  0  0  0  0  0  0  0  0  0  0  0
   15.7780   12.8260   26.9040 O   0  0  0  0  0  0  0  0  0  0  0  0
   13.5080   12.3730   26.3210 N   0  0  0  0  0  0  0  0  0  0  0  0
   12.8110   12.3550   25.0660 N   0  0  0  0  0  0  0  0  0  0  0  0
   12.0190   13.4280   24.6920 C   0  0  0  0  0  0  0  0  0  0  0  0
   11.6640   14.3380   25.4290 O   0  0  0  0  0  0  0  0  0  0  0  0
   11.6140   13.3560   23.1990 C   0  0  2  0  0  0  0  0  0  0  0  0
   11.6590   14.7280   22.5090 C   0  0  0  0  0  0  0  0  0  0  0  0
   10.4350   14.7330   21.6270 C   0  0  0  0  0  0  0  0  0  0  0  0
    9.4460   14.1140   22.5890 C   0  0  0  0  0  0  0  0  0  0  0  0
   10.2110   12.9650   23.0570 N   0  0  0  0  0  0  0  0  0  0  0  0
    9.6450   11.8930   23.6740 C   0  0  0  0  0  0  0  0  0  0  0  0
   10.1770   10.4740   23.4650 C   0  0  0  0  0  0  0  0  0  0  0  0
    9.4520    9.4270   24.2200 C   0  0  0  0  0  0  0  0  0  0  0  0
    8.3880    9.7150   25.0400 C   0  0  0  0  0  0  0  0  0  0  0  0
    7.9340   11.0060   25.1960 C   0  0  0  0  0  0  0  0  0  0  0  0
    8.5480   12.0590   24.5300 C   0  0  0  0  0  0  0  0  0  0  0  0
  1  2  1  0
  2  3  2  0
  2  4  1  0
  4  5  1  0
  5  6  1  0
  6  7  2  0
  8  6  1  1
  8  9  1  0
  9 10  1  0
 10 11  1  0
 11 12  1  0
 12 13  1  0
 13 14  2  0
 14 15  1  0
 15 16  2  0
 16 17  1  0
 17 18  2  0
 12  8  1  0
 18 13  1  0
A    1
 C1 
A    2
 C2 
A    3
 O1 
A    4
 N1 
A    5
 N2 
A    6
 C3 
A    7
 O2 
A    8
 C4 
A    9
 C5 
A   10
 C6 
A   11
 C7 
A   12
 N3 
A   13
 C8 
A   14
 C9 
A   15
 C10
A   16
 C11
A   17
 C12
A   18
 C13
M  END
>  <ref_pdb>  (16) 
x0554_0A

>  <ref_mols>  (16) 
x0554_0A

>  <original SMILES>  (16) 
CC(=O)NNC(=O)C1CCCN1c1ccccc1

>  <rationale>  (16) 
info cluster #6 (rank 2); hbond:G108; hydroph_interaction:L22+Y89+A110; 

>  <cluster_rank>  (16) 
2

>  <N_interactions>  (16) 
4

>  <N_interactions_lost>  (16) 
1

>  <∆∆G>  (16) 
-7.691133

>  <comRMSD>  (16) 
0.8061

>  <N_rotatable_bonds>  (16) 
3

>  <N_unconstrained_atoms>  (16) 
3

>  <N_constrained_atoms>  (16) 
18

>  <price>  (16) 
0

$$$$
PV_006164057954
     RDKit          3D

 15 16  0  0  0  0  0  0  0  0999 V2000
   10.2290    8.8040   23.1830 C   0  0  0  0  0  0  0  0  0  0  0  0
    9.3680    9.9340   23.7600 C   0  0  0  0  0  0  0  0  0  0  0  0
    8.3350    9.5850   24.6080 N   0  0  0  0  0  0  0  0  0  0  0  0
    7.7890   10.7790   24.9200 N   0  0  0  0  0  0  0  0  0  0  0  0
    6.6520   10.8110   25.8200 C   0  0  0  0  0  0  0  0  0  0  0  0
    8.4860   11.8790   24.2560 C   0  0  0  0  0  0  0  0  0  0  0  0
    8.0460   13.1920   24.4500 C   0  0  0  0  0  0  0  0  0  0  0  0
    8.0580   13.8910   23.1420 N   0  0  0  0  0  0  0  0  0  0  0  0
    9.1600   14.6440   22.7580 C   0  0  0  0  0  0  0  0  0  0  0  0
   10.3790   14.9680   23.2850 N   0  0  0  0  0  0  0  0  0  0  0  0
   11.1620   15.3500   22.1410 C   0  0  0  0  0  0  0  0  0  0  0  0
   10.2950   15.6650   20.9330 C   0  0  1  0  0  0  0  0  0  0  0  0
   10.7280   14.8010   19.7280 C   0  0  0  0  0  0  0  0  0  0  0  0
    9.0180   15.2240   21.4940 N   0  0  0  0  0  0  0  0  0  0  0  0
    9.4990   11.3080   23.5290 C   0  0  0  0  0  0  0  0  0  0  0  0
  1  2  1  0
  2  3  2  0
  3  4  1  0
  4  5  1  0
  4  6  1  0
  6  7  1  0
  7  8  1  0
  8  9  2  3
  9 10  1  0
 10 11  1  0
 11 12  1  0
 12 13  1  6
 12 14  1  0
  6 15  2  0
 15  2  1  0
 14  9  1  0
A    1
 C1 
A    2
 C2 
A    3
 N1 
A    4
 N2 
A    5
 C3 
A    6
 C4 
A    7
 C5 
A    8
 N3 
A    9
 C6 
A   10
 N4 
A   11
 C7 
A   12
 C8 
A   13
 C9 
A   14
 N5 
A   15
 C10
M  END
>  <ref_pdb>  (17) 
x0554_0A

>  <ref_mols>  (17) 
x0310_0A

>  <original SMILES>  (17) 
Cc1cc(CN=C2NCC(C)N2)n(C)n1

>  <rationale>  (17) 
info cluster #7 (rank 2); hbond:S87+G127+T126; hydroph_interaction:D109+V124; 

>  <cluster_rank>  (17) 
2

>  <N_interactions>  (17) 
5

>  <N_interactions_lost>  (17) 
1

>  <∆∆G>  (17) 
-8.452452

>  <comRMSD>  (17) 
0.66486

>  <N_rotatable_bonds>  (17) 
5

>  <N_unconstrained_atoms>  (17) 
2

>  <N_constrained_atoms>  (17) 
13

>  <price>  (17) 
0

$$$$
Z1616812139
     RDKit          3D

 18 19  0  0  0  0  0  0  0  0999 V2000
   12.4500   15.3240   21.3590 C   0  0  0  0  0  0  0  0  0  0  0  0
   11.1410   14.8450   21.6830 N   0  0  0  0  0  0  0  0  0  0  0  0
   11.1170   13.5410   22.2190 N   0  0  0  0  0  0  0  0  0  0  0  0
   10.8130   13.3450   23.5500 C   0  0  0  0  0  0  0  0  0  0  0  0
   11.2280   14.0900   24.4340 O   0  0  0  0  0  0  0  0  0  0  0  0
    9.9260   12.1490   23.9000 C   0  0  0  0  0  0  0  0  0  0  0  0
   10.2580   10.9330   23.3110 C   0  0  0  0  0  0  0  0  0  0  0  0
    9.3390   10.0390   23.7850 N   0  0  0  0  0  0  0  0  0  0  0  0
    9.2950    8.6360   23.4410 C   0  0  0  0  0  0  0  0  0  0  0  0
    8.4460   10.6690   24.6600 C   0  0  0  0  0  0  0  0  0  0  0  0
    7.2920   10.0470   25.4110 C   0  0  0  0  0  0  0  0  0  0  0  0
    6.6340   11.0210   26.1780 C   0  0  0  0  0  0  0  0  0  0  0  0
    6.9790   12.3720   26.2570 C   0  0  0  0  0  0  0  0  0  0  0  0
    8.0530   12.8700   25.5470 C   0  0  0  0  0  0  0  0  0  0  0  0
    8.8070   12.0250   24.7360 C   0  0  0  0  0  0  0  0  0  0  0  0
   10.0050   15.3650   21.1120 C   0  0  0  0  0  0  0  0  0  0  0  0
   10.1340   16.6120   20.5620 N   0  0  0  0  0  0  0  0  0  0  0  0
    8.9340   14.7950   21.0930 O   0  0  0  0  0  0  0  0  0  0  0  0
  1  2  1  0
  2  3  1  0
  3  4  1  0
  4  5  2  0
  4  6  1  0
  6  7  2  0
  7  8  1  0
  8  9  1  0
  8 10  1  0
 10 11  2  0
 11 12  1  0
 12 13  2  0
 13 14  1  0
 14 15  2  0
  2 16  1  0
 16 17  1  0
 16 18  2  0
 15  6  1  0
 15 10  1  0
A    1
 C1 
A    2
 N1 
A    3
 N2 
A    4
 C2 
A    5
 O1 
A    6
 C3 
A    7
 C4 
A    8
 N3 
A    9
 C5 
A   10
 C6 
A   11
 C7 
A   12
 C8 
A   13
 C9 
A   14
 C10
A   15
 C11
A   16
 C12
A   17
 N4 
A   18
 O2 
M  END
>  <ref_pdb>  (18) 
x0554_0A

>  <ref_mols>  (18) 
x0451_0A

>  <original SMILES>  (18) 
CN(NC(=O)c1cn(C)c2ccccc12)C(N)=O

>  <rationale>  (18) 
info cluster #3 (rank 2); hbond:S87+S125; 

>  <cluster_rank>  (18) 
2

>  <N_interactions>  (18) 
3

>  <N_interactions_lost>  (18) 
2

>  <∆∆G>  (18) 
-9.292517

>  <comRMSD>  (18) 
0.771795

>  <N_rotatable_bonds>  (18) 
3

>  <N_unconstrained_atoms>  (18) 
1

>  <N_constrained_atoms>  (18) 
17

>  <price>  (18) 
0

$$$$
Z1262691367
     RDKit          3D

 12 12  0  0  0  0  0  0  0  0999 V2000
   10.8940   14.3320   20.3050 N   0  0  0  0  0  0  0  0  0  0  0  0
   10.0940   14.6440   21.3580 N   0  0  0  0  0  0  0  0  0  0  0  0
   10.4790   14.2880   22.6580 C   0  0  0  0  0  0  0  0  0  0  0  0
   11.5750   14.5670   23.1000 O   0  0  0  0  0  0  0  0  0  0  0  0
    9.3800   13.6040   23.4480 C   0  0  1  0  0  0  0  0  0  0  0  0
    8.1210   13.9250   22.7410 N   0  0  0  0  0  0  0  0  0  0  0  0
    9.3340   12.2170   23.7410 C   0  0  0  0  0  0  0  0  0  0  0  0
   10.1290   11.1320   23.3490 C   0  0  0  0  0  0  0  0  0  0  0  0
    9.9340    9.7390   23.7510 C   0  0  0  0  0  0  0  0  0  0  0  0
    8.7730    9.4610   24.6770 C   0  0  0  0  0  0  0  0  0  0  0  0
    7.9350   10.4980   25.1120 C   0  0  0  0  0  0  0  0  0  0  0  0
    8.1660   11.8160   24.6910 C   0  0  0  0  0  0  0  0  0  0  0  0
  1  2  1  0
  2  3  1  0
  3  4  2  0
  3  5  1  0
  5  6  1  6
  5  7  1  0
  7  8  2  0
  8  9  1  0
  9 10  2  0
 10 11  1  0
 11 12  2  0
 12  7  1  0
A    1
 N1 
A    2
 N2 
A    3
 C1 
A    4
 O1 
A    5
 C2 
A    6
 N3 
A    7
 C3 
A    8
 C4 
A    9
 C5 
A   10
 C6 
A   11
 C7 
A   12
 C8 
M  END
>  <ref_pdb>  (19) 
x0554_0A

>  <ref_mols>  (19) 
x0566_0A

>  <original SMILES>  (19) 
NNC(=O)[C@@H](N)c1ccccc1

>  <rationale>  (19) 
info cluster #1 (rank 2); hbond:S125+G127+T126; 

>  <cluster_rank>  (19) 
2

>  <N_interactions>  (19) 
4

>  <N_interactions_lost>  (19) 
0

>  <∆∆G>  (19) 
-5.10068

>  <comRMSD>  (19) 
0.818283

>  <N_rotatable_bonds>  (19) 
4

>  <N_unconstrained_atoms>  (19) 
0

>  <N_constrained_atoms>  (19) 
13

>  <price>  (19) 
0

$$$$
Z3380162507
     RDKit          3D

 15 16  0  0  0  0  0  0  0  0999 V2000
   11.8890   14.2650   22.0700 C   0  0  0  0  0  0  0  0  0  0  0  0
   10.6900   13.5270   22.3580 O   0  0  0  0  0  0  0  0  0  0  0  0
   10.4650   13.3060   23.6900 C   0  0  0  0  0  0  0  0  0  0  0  0
   10.8740   14.0730   24.5550 O   0  0  0  0  0  0  0  0  0  0  0  0
    9.6750   12.0870   24.0130 C   0  0  0  0  0  0  0  0  0  0  0  0
    9.9260   10.7970   23.6060 C   0  0  0  0  0  0  0  0  0  0  0  0
   10.9260   10.3550   22.8610 C   0  0  0  0  0  0  0  0  0  0  0  0
    9.0030    9.9420   24.0720 N   0  0  0  0  0  0  0  0  0  0  0  0
    9.0110    8.5230   23.7790 C   0  0  0  0  0  0  0  0  0  0  0  0
    8.1070   10.6200   24.8400 C   0  0  0  0  0  0  0  0  0  0  0  0
    7.0020   10.1490   25.5410 C   0  0  0  0  0  0  0  0  0  0  0  0
    6.1390   11.0980   26.3390 C   0  0  0  0  0  0  0  0  0  0  0  0
    6.5270   12.4300   26.3110 C   0  0  0  0  0  0  0  0  0  0  0  0
    7.7280   12.8900   25.5410 C   0  0  0  0  0  0  0  0  0  0  0  0
    8.4980   11.9690   24.8200 C   0  0  0  0  0  0  0  0  0  0  0  0
  1  2  1  0
  2  3  1  0
  3  4  2  0
  3  5  1  0
  5  6  2  0
  6  7  1  0
  6  8  1  0
  8  9  1  0
  8 10  1  0
 10 11  2  0
 11 12  1  0
 12 13  2  0
 13 14  1  0
 14 15  2  0
 15  5  1  0
 15 10  1  0
A    1
 C1 
A    2
 O1 
A    3
 C2 
A    4
 O2 
A    5
 C3 
A    6
 C4 
A    7
 C5 
A    8
 N1 
A    9
 C6 
A   10
 C7 
A   11
 C8 
A   12
 C9 
A   13
 C10
A   14
 C11
A   15
 C12
M  END
>  <ref_pdb>  (20) 
x0554_0A

>  <ref_mols>  (20) 
x0451_0A,x0451_0A

>  <original SMILES>  (20) 
COC(=O)c1c(C)n(C)c2ccccc12

>  <rationale>  (20) 
info cluster #4 (rank 2); hydroph_interaction:A110; saltbridge:H21; 

>  <cluster_rank>  (20) 
2

>  <N_interactions>  (20) 
2

>  <N_interactions_lost>  (20) 
0

>  <∆∆G>  (20) 
-8.427579

>  <comRMSD>  (20) 
0.566174

>  <N_rotatable_bonds>  (20) 
4

>  <N_unconstrained_atoms>  (20) 
1

>  <N_constrained_atoms>  (20) 
14

>  <price>  (20) 
163

$$$$
Z1539143089
     RDKit          3D

 17 18  0  0  0  0  0  0  0  0999 V2000
   11.4430   14.5720   19.9190 C   0  0  0  0  0  0  0  0  0  0  0  0
   11.9710   14.8440   21.3260 C   0  0  0  0  0  0  0  0  0  0  0  0
   12.6800   15.8020   21.5630 O   0  0  0  0  0  0  0  0  0  0  0  0
   11.5580   13.9110   22.2920 N   0  0  0  0  0  0  0  0  0  0  0  0
   10.1250   14.0530   23.1370 S   0  0  0  0  0  6  0  0  0  0  0  0
   10.3290   14.7830   24.3650 O   0  0  0  0  0  0  0  0  0  0  0  0
    9.0880   14.3570   22.1680 O   0  0  0  0  0  0  0  0  0  0  0  0
    9.6400   12.4830   23.6780 C   0  0  0  0  0  0  0  0  0  0  0  0
   10.2130   11.1520   23.2360 C   0  0  0  0  0  0  0  0  0  0  0  0
    9.5040   10.2090   23.9020 N   0  0  0  0  0  0  0  0  0  0  0  0
    9.7200    8.7940   23.7420 C   0  0  0  0  0  0  0  0  0  0  0  0
    8.5540   10.7850   24.7370 C   0  0  0  0  0  0  0  0  0  0  0  0
    7.6590   10.1820   25.5760 C   0  0  0  0  0  0  0  0  0  0  0  0
    6.7780   10.9570   26.3190 C   0  0  0  0  0  0  0  0  0  0  0  0
    6.8050   12.3340   26.2240 C   0  0  0  0  0  0  0  0  0  0  0  0
    7.7200   12.9590   25.3780 C   0  0  0  0  0  0  0  0  0  0  0  0
    8.6170   12.1840   24.6130 C   0  0  0  0  0  0  0  0  0  0  0  0
  1  2  1  0
  2  3  2  0
  2  4  1  0
  4  5  1  0
  5  6  2  0
  5  7  2  0
  5  8  1  0
  8  9  2  0
  9 10  1  0
 10 11  1  0
 10 12  1  0
 12 13  2  0
 13 14  1  0
 14 15  2  0
 15 16  1  0
 16 17  2  0
 17  8  1  0
 17 12  1  0
A    1
 C1 
A    2
 C2 
A    3
 O1 
A    4
 N1 
A    5
 S1 
A    6
 O2 
A    7
 O3 
A    8
 C3 
A    9
 C4 
A   10
 N2 
A   11
 C5 
A   12
 C6 
A   13
 C7 
A   14
 C8 
A   15
 C9 
A   16
 C10
A   17
 C11
M  END
>  <ref_pdb>  (21) 
x0554_0A

>  <ref_mols>  (21) 
x0451_0A,x0566_0A

>  <original SMILES>  (21) 
CC(=O)NS(=O)(=O)c1cn(C)c2ccccc12

>  <rationale>  (21) 
info cluster #9 (rank 2); hbond:H21+S87; 

>  <cluster_rank>  (21) 
2

>  <N_interactions>  (21) 
2

>  <N_interactions_lost>  (21) 
1

>  <∆∆G>  (21) 
-8.945729

>  <comRMSD>  (21) 
0.775875

>  <N_rotatable_bonds>  (21) 
4

>  <N_unconstrained_atoms>  (21) 
1

>  <N_constrained_atoms>  (21) 
17

>  <price>  (21) 
163

$$$$
Z1904034794
     RDKit          3D

 16 16  0  0  0  0  0  0  0  0999 V2000
   10.2650    8.7770   23.2970 C   0  0  0  0  0  0  0  0  0  0  0  0
    9.4650    9.9540   23.7490 C   0  0  0  0  0  0  0  0  0  0  0  0
    8.4310    9.7140   24.6010 N   0  0  0  0  0  0  0  0  0  0  0  0
    7.9240   10.9450   24.8060 N   0  0  0  0  0  0  0  0  0  0  0  0
    6.8090   11.0510   25.6810 C   0  0  0  0  0  0  0  0  0  0  0  0
    8.5980   11.9460   24.1040 C   0  0  0  0  0  0  0  0  0  0  0  0
    8.3120   13.3220   24.0840 C   0  0  0  0  0  0  0  0  0  0  0  0
    8.6520   13.7570   22.7190 O   0  0  0  0  0  0  0  0  0  0  0  0
    9.6750   14.6600   22.5080 C   0  0  0  0  0  0  0  0  0  0  0  0
   10.5150   14.9140   23.3630 O   0  0  0  0  0  0  0  0  0  0  0  0
    9.8020   15.4350   21.1670 C   0  0  0  0  0  0  0  0  0  0  0  0
   10.3680   14.8630   19.9950 C   0  0  0  0  0  0  0  0  0  0  0  0
   10.5040   15.6100   18.8000 C   0  0  0  0  0  0  0  0  0  0  0  0
   11.8730   15.4420   18.2240 C   0  0  0  0  0  0  0  0  0  0  0  0
    9.6700   15.0460   17.6370 C   0  0  0  0  0  0  0  0  0  0  0  0
    9.6050   11.3000   23.4340 C   0  0  0  0  0  0  0  0  0  0  0  0
  1  2  1  0
  2  3  2  0
  3  4  1  0
  4  5  1  0
  4  6  1  0
  6  7  1  0
  7  8  1  0
  8  9  1  0
  9 10  2  0
  9 11  1  0
 11 12  2  3
 12 13  1  0
 13 14  1  0
 13 15  1  0
  6 16  2  0
 16  2  1  0
A    1
 C1 
A    2
 C2 
A    3
 N1 
A    4
 N2 
A    5
 C3 
A    6
 C4 
A    7
 C5 
A    8
 O1 
A    9
 C6 
A   10
 O2 
A   11
 C7 
A   12
 C8 
A   13
 C9 
A   14
 C10
A   15
 C11
A   16
 C12
M  END
>  <ref_pdb>  (22) 
x0554_0A

>  <ref_mols>  (22) 
x0310_0A

>  <original SMILES>  (22) 
Cc1cc(COC(=O)C=CC(C)C)n(C)n1

>  <rationale>  (22) 
info cluster #2 (rank 3); hbond:S87; hydroph_interaction:Y90+D109+V124+V84+D39; 

>  <cluster_rank>  (22) 
3

>  <N_interactions>  (22) 
7

>  <N_interactions_lost>  (22) 
1

>  <∆∆G>  (22) 
-10.082137

>  <comRMSD>  (22) 
0.548367

>  <N_rotatable_bonds>  (22) 
8

>  <N_unconstrained_atoms>  (22) 
4

>  <N_constrained_atoms>  (22) 
13

>  <price>  (22) 
0

$$$$
Z1483899480
     RDKit          3D

 15 16  0  0  0  0  0  0  0  0999 V2000
   11.9030   14.3290   22.5750 C   0  0  0  0  0  0  0  0  0  0  0  0
   11.1050   13.4940   23.5030 C   0  0  0  0  0  0  0  0  0  0  0  0
   11.0510   13.8140   24.6830 O   0  0  0  0  0  0  0  0  0  0  0  0
   10.4980   12.4410   22.9610 N   0  0  0  0  0  0  0  0  0  0  0  0
    9.8140   11.3230   23.5240 C   0  0  0  0  0  0  0  0  0  0  0  0
   10.2720   10.0640   23.1020 C   0  0  0  0  0  0  0  0  0  0  0  0
    9.7110    8.8950   23.5390 C   0  0  0  0  0  0  0  0  0  0  0  0
    8.5650    9.0200   24.5040 C   0  0  0  0  0  0  0  0  0  0  0  0
    8.0930   10.2380   24.9310 C   0  0  0  0  0  0  0  0  0  0  0  0
    6.9190   10.2120   25.9030 C   0  0  0  0  0  0  0  0  0  0  0  0
    6.4370   11.5560   26.3410 C   0  0  0  0  0  0  0  0  0  0  0  0
    7.0570   12.6950   25.8620 C   0  0  0  0  0  0  0  0  0  0  0  0
    6.6230   13.9260   26.2570 O   0  0  0  0  0  0  0  0  0  0  0  0
    8.1390   12.6570   24.9630 C   0  0  0  0  0  0  0  0  0  0  0  0
    8.6990   11.4430   24.4610 C   0  0  0  0  0  0  0  0  0  0  0  0
  1  2  1  0
  2  3  2  0
  2  4  1  0
  4  5  1  0
  5  6  2  0
  6  7  1  0
  7  8  2  0
  8  9  1  0
  9 10  2  0
 10 11  1  0
 11 12  2  0
 12 13  1  0
 12 14  1  0
 14 15  2  0
 15  5  1  0
 15  9  1  0
A    1
 C1 
A    2
 C2 
A    3
 O1 
A    4
 N1 
A    5
 C3 
A    6
 C4 
A    7
 C5 
A    8
 C6 
A    9
 C7 
A   10
 C8 
A   11
 C9 
A   12
 C10
A   13
 O2 
A   14
 C11
A   15
 C12
M  END
>  <ref_pdb>  (23) 
x0554_0A

>  <ref_mols>  (23) 
x0554_0A,x0451_0A

>  <original SMILES>  (23) 
CC(=O)Nc1cccc2ccc(O)cc12

>  <rationale>  (23) 
info cluster #8 (rank 3); hbond:S125; hydroph_interaction:Y89+D109+V124; 

>  <cluster_rank>  (23) 
3

>  <N_interactions>  (23) 
4

>  <N_interactions_lost>  (23) 
1

>  <∆∆G>  (23) 
-8.399045

>  <comRMSD>  (23) 
0.799828

>  <N_rotatable_bonds>  (23) 
3

>  <N_unconstrained_atoms>  (23) 
1

>  <N_constrained_atoms>  (23) 
16

>  <price>  (23) 
0

$$$$
Z4890837094
     RDKit          3D

 15 16  0  0  0  0  0  0  0  0999 V2000
   11.7050   14.2290   22.5740 N   0  0  0  0  0  0  0  0  0  0  0  0
   11.0460   13.5040   23.5360 C   0  0  0  0  0  0  0  0  0  0  0  0
   11.0050   13.9110   24.6940 O   0  0  0  0  0  0  0  0  0  0  0  0
   10.5160   12.3800   22.9800 N   0  0  0  0  0  0  0  0  0  0  0  0
    9.8170   11.3740   23.5370 C   0  0  0  0  0  0  0  0  0  0  0  0
   10.3450   10.0290   23.0090 C   0  0  0  0  0  0  0  0  0  0  0  0
    9.5620    8.8910   23.6210 C   0  0  0  0  0  0  0  0  0  0  0  0
    8.5360    9.0360   24.5110 C   0  0  0  0  0  0  0  0  0  0  0  0
    8.0900   10.2670   24.9510 C   0  0  0  0  0  0  0  0  0  0  0  0
    7.0390   10.2670   25.8410 C   0  0  0  0  0  0  0  0  0  0  0  0
    6.4930   11.5570   26.3700 C   0  0  0  0  0  0  0  0  0  0  0  0
    5.4720   11.5960   27.2400 F   0  0  0  0  0  0  0  0  0  0  0  0
    7.1110   12.7160   25.9050 C   0  0  0  0  0  0  0  0  0  0  0  0
    8.1760   12.6800   25.0020 C   0  0  0  0  0  0  0  0  0  0  0  0
    8.7100   11.4780   24.4860 C   0  0  0  0  0  0  0  0  0  0  0  0
  1  2  1  0
  2  3  2  0
  2  4  1  0
  4  5  1  0
  5  6  2  0
  6  7  1  0
  7  8  2  0
  8  9  1  0
  9 10  2  0
 10 11  1  0
 11 12  1  0
 11 13  2  0
 13 14  1  0
 14 15  2  0
 15  5  1  0
 15  9  1  0
A    1
 N1 
A    2
 C1 
A    3
 O1 
A    4
 N2 
A    5
 C2 
A    6
 C3 
A    7
 C4 
A    8
 C5 
A    9
 C6 
A   10
 C7 
A   11
 C8 
A   12
 F1 
A   13
 C9 
A   14
 C10
A   15
 C11
M  END
>  <ref_pdb>  (24) 
x0554_0A

>  <ref_mols>  (24) 
x0554_0A,x0451_0A

>  <original SMILES>  (24) 
NC(=O)Nc1cccc2cc(F)ccc12

>  <rationale>  (24) 
info cluster #0 (rank 3); hbond:S125; hydroph_interaction:D109; 

>  <cluster_rank>  (24) 
3

>  <N_interactions>  (24) 
3

>  <N_interactions_lost>  (24) 
1

>  <∆∆G>  (24) 
-6.87663

>  <comRMSD>  (24) 
0.806669

>  <N_rotatable_bonds>  (24) 
1

>  <N_unconstrained_atoms>  (24) 
1

>  <N_constrained_atoms>  (24) 
16

>  <price>  (24) 
0

$$$$
PV_001905981778
     RDKit          3D

 15 16  0  0  0  0  0  0  0  0999 V2000
   11.8320   14.1750   22.5560 C   0  0  0  0  0  0  0  0  0  0  0  0
   11.0040   13.4210   23.5370 C   0  0  0  0  0  0  0  0  0  0  0  0
   10.9780   13.8310   24.6890 O   0  0  0  0  0  0  0  0  0  0  0  0
   10.3480   12.3420   23.0910 N   0  0  0  0  0  0  0  0  0  0  0  0
    9.5110   11.3910   23.7780 C   0  0  0  0  0  0  0  0  0  0  0  0
    8.5050   11.7510   24.7020 C   0  0  0  0  0  0  0  0  0  0  0  0
    8.1560   13.0340   25.0930 C   0  0  0  0  0  0  0  0  0  0  0  0
    7.0100   13.1840   26.1210 C   0  0  0  0  0  0  0  0  0  0  0  0
    6.3440   12.0170   26.6400 N   0  0  0  0  0  0  0  0  0  0  0  0
    6.7590   10.8410   26.2000 C   0  0  0  0  0  0  0  0  0  0  0  0
    7.7780   10.7110   25.2860 C   0  0  0  0  0  0  0  0  0  0  0  0
    8.0260    9.3110   24.9800 C   0  0  0  0  0  0  0  0  0  0  0  0
    8.9780    9.0020   24.0950 C   0  0  0  0  0  0  0  0  0  0  0  0
    9.6990   10.0030   23.5080 C   0  0  0  0  0  0  0  0  0  0  0  0
   10.6740    9.4770   22.5760 C   0  0  0  0  0  0  0  0  0  0  0  0
  1  2  1  0
  2  3  2  0
  2  4  1  0
  4  5  1  0
  5  6  2  0
  6  7  1  0
  7  8  2  0
  8  9  1  0
  9 10  2  0
 10 11  1  0
 11 12  2  0
 12 13  1  0
 13 14  2  0
 14 15  1  0
 14  5  1  0
 11  6  1  0
A    1
 C1 
A    2
 C2 
A    3
 O1 
A    4
 N1 
A    5
 C3 
A    6
 C4 
A    7
 C5 
A    8
 C6 
A    9
 N2 
A   10
 C7 
A   11
 C8 
A   12
 C9 
A   13
 C10
A   14
 C11
A   15
 C12
M  END
>  <ref_pdb>  (25) 
x0554_0A

>  <ref_mols>  (25) 
x0554_0A,x0451_0A

>  <original SMILES>  (25) 
CC(=O)Nc1c(C)ccc2cnccc12

>  <rationale>  (25) 
info cluster #5 (rank 3); hbond:S125; hydroph_interaction:Y89+A110+V124; 

>  <cluster_rank>  (25) 
3

>  <N_interactions>  (25) 
4

>  <N_interactions_lost>  (25) 
1

>  <∆∆G>  (25) 
-8.223232

>  <comRMSD>  (25) 
0.80535

>  <N_rotatable_bonds>  (25) 
3

>  <N_unconstrained_atoms>  (25) 
1

>  <N_constrained_atoms>  (25) 
15

>  <price>  (25) 
0

$$$$
PV_007114396596
     RDKit          3D

 16 18  0  0  0  0  0  0  0  0999 V2000
   14.6900   12.6750   24.7590 C   0  0  0  0  0  0  0  0  0  0  0  0
   13.2920   12.7850   24.3120 C   0  0  0  0  0  0  0  0  0  0  0  0
   12.3760   11.8490   24.5900 C   0  0  0  0  0  0  0  0  0  0  0  0
   11.0550   12.1630   24.0810 C   0  0  0  0  0  0  0  0  0  0  0  0
    9.9360   11.3080   24.2980 C   0  0  0  0  0  0  0  0  0  0  0  0
   10.0130   10.0010   23.9440 N   0  0  0  0  0  0  0  0  0  0  0  0
    8.9470    9.2220   24.2060 C   0  0  0  0  0  0  0  0  0  0  0  0
    7.7890    9.7100   24.8190 C   0  0  0  0  0  0  0  0  0  0  0  0
    7.7090   11.0340   25.1670 C   0  0  0  0  0  0  0  0  0  0  0  0
    8.7990   11.8260   24.8920 C   0  0  0  0  0  0  0  0  0  0  0  0
    8.4880   13.0970   25.3230 N   0  0  0  0  0  0  0  0  0  0  0  0
    7.2330   13.1160   25.8600 C   0  0  0  0  0  0  0  0  0  0  0  0
    6.7250   11.8430   25.7790 C   0  0  0  0  0  0  0  0  0  0  0  0
   11.0480   13.3600   23.4170 C   0  0  0  0  0  0  0  0  0  0  0  0
   10.0150   14.0020   22.8210 C   0  0  0  0  0  0  0  0  0  0  0  0
   12.5960   14.0750   23.3980 S   0  0  0  0  0  0  0  0  0  0  0  0
  1  2  1  0
  2  3  2  0
  3  4  1  0
  4  5  1  0
  5  6  2  0
  6  7  1  0
  7  8  2  0
  8  9  1  0
  9 10  2  0
 10 11  1  0
 11 12  1  0
 12 13  2  0
  4 14  2  0
 14 15  1  0
 14 16  1  0
 16  2  1  0
 10  5  1  0
 13  9  1  0
A    1
 C1 
A    2
 C2 
A    3
 C3 
A    4
 C4 
A    5
 C5 
A    6
 N1 
A    7
 C6 
A    8
 C7 
A    9
 C8 
A   10
 C9 
A   11
 N2 
A   12
 C10
A   13
 C11
A   14
 C12
A   15
 C13
A   16
 S1 
M  END
>  <ref_pdb>  (26) 
x0554_0A

>  <ref_mols>  (26) 
x0554_0A

>  <original SMILES>  (26) 
Cc1cc(-c2nccc3cc[nH]c23)c(C)s1

>  <rationale>  (26) 
info cluster #6 (rank 3); hydroph_interaction:L22+Y89+A110; 

>  <cluster_rank>  (26) 
3

>  <N_interactions>  (26) 
3

>  <N_interactions_lost>  (26) 
0

>  <∆∆G>  (26) 
-7.148049

>  <comRMSD>  (26) 
0.979295

>  <N_rotatable_bonds>  (26) 
3

>  <N_unconstrained_atoms>  (26) 
1

>  <N_constrained_atoms>  (26) 
15

>  <price>  (26) 
0

$$$$
Z2269710760
     RDKit          3D

 20 21  0  0  0  0  0  0  0  0999 V2000
   11.7630   14.6150   22.1390 C   0  0  0  0  0  0  0  0  0  0  0  0
   10.6370   13.7290   22.3780 N   0  0  0  0  0  0  0  0  0  0  0  0
    9.9260   13.8060   23.5890 C   0  0  0  0  0  0  0  0  0  0  0  0
    9.8510   15.0050   24.3410 O   0  0  0  0  0  0  0  0  0  0  0  0
    9.2630   12.5130   24.1140 C   0  0  0  0  0  0  0  0  0  0  0  0
    9.9400   11.2800   23.5810 C   0  0  0  0  0  0  0  0  0  0  0  0
    9.4720    9.9580   23.9800 C   0  0  0  0  0  0  0  0  0  0  0  0
   10.0150    8.7750   23.5470 C   0  0  0  0  0  0  0  0  0  0  0  0
    8.4020    9.9210   24.8630 C   0  0  0  0  0  0  0  0  0  0  0  0
    7.7530   11.0610   25.3560 C   0  0  0  0  0  0  0  0  0  0  0  0
    8.1290   12.3700   25.0230 C   0  0  0  0  0  0  0  0  0  0  0  0
    7.4000   13.4690   25.5940 N   0  0  0  0  0  0  0  0  0  0  0  0
    6.0200   13.6870   25.8140 C   0  0  0  0  0  0  0  0  0  0  0  0
    5.1330   14.3810   24.9290 O   0  0  0  0  0  0  0  0  0  0  0  0
    5.3980   13.2190   27.1370 C   0  0  2  0  0  0  0  0  0  0  0  0
    6.4110   12.4710   27.9310 C   0  0  0  0  0  0  0  0  0  0  0  0
    5.4850   12.0480   29.0520 C   0  0  0  0  0  0  0  0  0  0  0  0
    4.2880   11.5510   28.2540 C   0  0  2  0  0  0  0  0  0  0  0  0
    4.4740   10.1140   27.7760 C   0  0  0  0  0  0  0  0  0  0  0  0
    4.2290   12.3870   27.0880 O   0  0  0  0  0  0  0  0  0  0  0  0
  1  2  1  0
  2  3  1  0
  3  4  2  0
  3  5  1  0
  5  6  2  0
  6  7  1  0
  7  8  1  0
  7  9  2  0
  9 10  1  0
 10 11  2  0
 11 12  1  0
 12 13  1  0
 13 14  2  0
 15 13  1  6
 15 16  1  0
 16 17  1  0
 17 18  1  0
 18 19  1  6
 18 20  1  0
 11  5  1  0
 20 15  1  0
A    1
 C1 
A    2
 N1 
A    3
 C2 
A    4
 O1 
A    5
 C3 
A    6
 C4 
A    7
 C5 
A    8
 C6 
A    9
 C7 
A   10
 C8 
A   11
 C9 
A   12
 N2 
A   13
 C10
A   14
 O2 
A   15
 C11
A   16
 C12
A   17
 C13
A   18
 C14
A   19
 C15
A   20
 O3 
M  END
>  <ref_pdb>  (27) 
x0554_0A

>  <ref_mols>  (27) 
x0416_0A,x0451_0A

>  <original SMILES>  (27) 
CNC(=O)c1cc(C)ccc1NC(=O)[C@@H]1CC[C@H](C)O1

>  <rationale>  (27) 
info cluster #7 (rank 3); hbond:S87+S125; hydroph_interaction:P107+D109+V124; 

>  <cluster_rank>  (27) 
3

>  <N_interactions>  (27) 
5

>  <N_interactions_lost>  (27) 
1

>  <∆∆G>  (27) 
-9.611909

>  <comRMSD>  (27) 
0.812798

>  <N_rotatable_bonds>  (27) 
6

>  <N_unconstrained_atoms>  (27) 
1

>  <N_constrained_atoms>  (27) 
21

>  <price>  (27) 
0

$$$$
Z4421703895
     RDKit          3D

 17 18  0  0  0  0  0  0  0  0999 V2000
   10.9750   14.9830   19.5820 C   0  0  0  0  0  0  0  0  0  0  0  0
   10.0980   15.3860   20.7330 C   0  0  2  0  0  0  0  0  0  0  0  0
    9.8540   16.8490   20.7000 N   0  0  0  0  0  0  0  0  0  0  0  0
   10.5340   15.0010   22.0530 C   0  0  0  0  0  0  0  0  0  0  0  0
   10.8240   15.8100   22.9350 O   0  0  0  0  0  0  0  0  0  0  0  0
   10.5960   13.6460   22.2270 N   0  0  0  0  0  0  0  0  0  0  0  0
   10.9840   13.1500   23.5100 C   0  0  2  0  0  0  0  0  0  0  0  0
   12.4720   12.8280   23.5700 C   0  0  0  0  0  0  0  0  0  0  0  0
   10.1680   11.9410   23.8930 C   0  0  0  0  0  0  0  0  0  0  0  0
   10.5880   10.6910   23.4700 C   0  0  0  0  0  0  0  0  0  0  0  0
    9.9390    9.3830   23.7870 C   0  0  0  0  0  0  0  0  0  0  0  0
    8.7370    9.5890   24.6440 C   0  0  0  0  0  0  0  0  0  0  0  0
    8.2770   10.8530   25.0610 C   0  0  0  0  0  0  0  0  0  0  0  0
    8.9940   11.9850   24.6790 C   0  0  0  0  0  0  0  0  0  0  0  0
    8.3370   13.0750   25.2190 N   0  0  0  0  0  0  0  0  0  0  0  0
    7.2390   12.6750   25.9220 C   0  0  0  0  0  0  0  0  0  0  0  0
    7.1720   11.2910   25.8470 C   0  0  0  0  0  0  0  0  0  0  0  0
  2  1  1  6
  2  3  1  0
  2  4  1  0
  4  5  2  0
  4  6  1  0
  6  7  1  0
  7  8  1  6
  7  9  1  0
  9 10  2  0
 10 11  1  0
 11 12  2  0
 12 13  1  0
 13 14  2  0
 14 15  1  0
 15 16  1  0
 16 17  2  0
 14  9  1  0
 17 13  1  0
A    1
 C1 
A    2
 C2 
A    3
 N1 
A    4
 C3 
A    5
 O1 
A    6
 N2 
A    7
 C4 
A    8
 C5 
A    9
 C6 
A   10
 C7 
A   11
 C8 
A   12
 C9 
A   13
 C10
A   14
 C11
A   15
 N3 
A   16
 C12
A   17
 C13
M  END
>  <ref_pdb>  (28) 
x0554_0A

>  <ref_mols>  (28) 
x0554_0A

>  <original SMILES>  (28) 
CC(N)C(=O)NC(C)c1cccc2cc[nH]c12

>  <rationale>  (28) 
info cluster #3 (rank 3); hbond:S87+S125; hydroph_interaction:Y90; 

>  <cluster_rank>  (28) 
3

>  <N_interactions>  (28) 
4

>  <N_interactions_lost>  (28) 
1

>  <∆∆G>  (28) 
-9.63746

>  <comRMSD>  (28) 
0.677045

>  <N_rotatable_bonds>  (28) 
6

>  <N_unconstrained_atoms>  (28) 
3

>  <N_constrained_atoms>  (28) 
14

>  <price>  (28) 
0

$$$$
Z89289676
     RDKit          3D

 17 18  0  0  0  0  0  0  0  0999 V2000
    9.5800   17.3840   20.2630 C   0  0  0  0  0  0  0  0  0  0  0  0
    9.0880   16.2180   21.1040 C   0  0  0  0  0  0  0  0  0  0  0  0
   10.1530   15.2150   21.5620 C   0  0  2  0  0  0  0  0  0  0  0  0
   11.0230   14.7290   20.3960 C   0  0  0  0  0  0  0  0  0  0  0  0
    9.5270   14.0900   22.2640 N   0  0  0  0  0  0  0  0  0  0  0  0
   10.3070   13.2210   23.0250 C   0  0  0  0  0  0  0  0  0  0  0  0
   11.5000   13.4160   23.2070 O   0  0  0  0  0  0  0  0  0  0  0  0
    9.6310   12.0430   23.5790 C   0  0  0  0  0  0  0  0  0  0  0  0
    9.9620   10.7630   23.1760 C   0  0  0  0  0  0  0  0  0  0  0  0
    9.1710    9.8760   23.8210 N   0  0  0  0  0  0  0  0  0  0  0  0
    9.2310    8.4540   23.6160 C   0  0  0  0  0  0  0  0  0  0  0  0
    8.3200   10.5250   24.6740 C   0  0  0  0  0  0  0  0  0  0  0  0
    7.3470   10.0210   25.5370 C   0  0  0  0  0  0  0  0  0  0  0  0
    6.6090   10.9120   26.2970 C   0  0  0  0  0  0  0  0  0  0  0  0
    6.8340   12.2780   26.2040 C   0  0  0  0  0  0  0  0  0  0  0  0
    7.8130   12.7800   25.3370 C   0  0  0  0  0  0  0  0  0  0  0  0
    8.5790   11.8950   24.5500 C   0  0  0  0  0  0  0  0  0  0  0  0
  1  2  1  0
  2  3  1  0
  3  4  1  6
  3  5  1  0
  5  6  1  0
  6  7  2  0
  6  8  1  0
  8  9  2  0
  9 10  1  0
 10 11  1  0
 10 12  1  0
 12 13  2  0
 13 14  1  0
 14 15  2  0
 15 16  1  0
 16 17  2  0
 17  8  1  0
 17 12  1  0
A    1
 C1 
A    2
 C2 
A    3
 C3 
A    4
 C4 
A    5
 N1 
A    6
 C5 
A    7
 O1 
A    8
 C6 
A    9
 C7 
A   10
 N2 
A   11
 C8 
A   12
 C9 
A   13
 C10
A   14
 C11
A   15
 C12
A   16
 C13
A   17
 C14
M  END
>  <ref_pdb>  (29) 
x0554_0A

>  <ref_mols>  (29) 
x0451_0A,x0566_0A

>  <original SMILES>  (29) 
CCC(C)NC(=O)c1cn(C)c2ccccc12

>  <rationale>  (29) 
info cluster #1 (rank 3); hbond:T126; hydroph_interaction:Y90+V84; 

>  <cluster_rank>  (29) 
3

>  <N_interactions>  (29) 
3

>  <N_interactions_lost>  (29) 
0

>  <∆∆G>  (29) 
-8.335713

>  <comRMSD>  (29) 
0.637303

>  <N_rotatable_bonds>  (29) 
6

>  <N_unconstrained_atoms>  (29) 
1

>  <N_constrained_atoms>  (29) 
17

>  <price>  (29) 
82.099999999999994

$$$$
PV_002851127747
     RDKit          3D

 12 12  0  0  0  0  0  0  0  0999 V2000
    9.0400    7.7960   22.9210 C   0  0  0  0  0  0  0  0  0  0  0  0
    8.7620    8.5940   24.1590 C   0  0  0  0  0  0  0  0  0  0  0  0
    9.0820   10.0730   24.1320 C   0  0  0  0  0  0  0  0  0  0  0  0
    8.2680   10.9830   24.8190 C   0  0  0  0  0  0  0  0  0  0  0  0
    7.0110   10.6440   25.6570 C   0  0  0  0  0  0  0  0  0  0  0  0
    8.7290   12.2670   24.6580 C   0  0  0  0  0  0  0  0  0  0  0  0
    9.9720   12.3600   23.8010 C   0  0  0  0  0  0  0  0  0  0  0  0
   10.5830   13.7260   23.5430 C   0  0  0  0  0  0  0  0  0  0  0  0
   10.8690   14.5240   24.4270 O   0  0  0  0  0  0  0  0  0  0  0  0
   10.7710   13.9700   22.2150 O   0  0  0  0  0  0  0  0  0  0  0  0
   12.0250   14.5780   21.8910 C   0  0  0  0  0  0  0  0  0  0  0  0
   10.4250   10.7880   23.2930 S   0  0  0  0  0  0  0  0  0  0  0  0
  1  2  2  0
  2  3  1  0
  3  4  2  0
  4  5  1  0
  4  6  1  0
  6  7  2  0
  7  8  1  0
  8  9  2  0
  8 10  1  0
 10 11  1  0
  7 12  1  0
 12  3  1  0
A    1
 C1 
A    2
 C2 
A    3
 C3 
A    4
 C4 
A    5
 C5 
A    6
 C6 
A    7
 C7 
A    8
 C8 
A    9
 O1 
A   10
 O2 
A   11
 C9 
A   12
 S1 
M  END
>  <ref_pdb>  (30) 
x0554_0A

>  <ref_mols>  (30) 
x0451_0A,x0554_0A

>  <original SMILES>  (30) 
C=Cc1sc(C(=O)OC)cc1C

>  <rationale>  (30) 
info cluster #4 (rank 3); hydroph_interaction:D109+V124; saltbridge:H21; 

>  <cluster_rank>  (30) 
3

>  <N_interactions>  (30) 
3

>  <N_interactions_lost>  (30) 
0

>  <∆∆G>  (30) 
-6.709908

>  <comRMSD>  (30) 
0.770561

>  <N_rotatable_bonds>  (30) 
4

>  <N_unconstrained_atoms>  (30) 
1

>  <N_constrained_atoms>  (30) 
13

>  <price>  (30) 
0

$$$$
Z3231550335
     RDKit          3D

 14 14  0  0  0  0  0  0  0  0999 V2000
   11.4280   13.7330   23.6600 C   0  0  0  0  0  0  0  0  0  0  0  0
   10.2630   13.1810   22.8770 C   0  0  2  0  0  0  0  0  0  0  0  0
    9.4020   14.2320   22.3560 N   0  0  0  0  0  0  0  0  0  0  0  0
    9.9000   15.1420   21.4260 C   0  0  0  0  0  0  0  0  0  0  0  0
    9.3870   16.2360   21.1940 O   0  0  0  0  0  0  0  0  0  0  0  0
   11.1690   14.7550   20.6640 C   0  0  1  0  0  0  0  0  0  0  0  0
   11.1740   14.7840   19.2730 C   0  0  0  0  0  0  0  0  0  0  0  0
   12.2810   15.5800   21.1710 N   0  0  0  0  0  0  0  0  0  0  0  0
    9.5470   12.0280   23.6620 C   0  0  0  0  0  0  0  0  0  0  0  0
   10.0690   10.7610   23.3870 C   0  0  0  0  0  0  0  0  0  0  0  0
    9.4730    9.7090   24.0650 C   0  0  0  0  0  0  0  0  0  0  0  0
    8.4340    9.8520   24.9590 C   0  0  0  0  0  0  0  0  0  0  0  0
    7.9160   11.1080   25.2200 C   0  0  0  0  0  0  0  0  0  0  0  0
    8.4770   12.2070   24.5660 C   0  0  0  0  0  0  0  0  0  0  0  0
  2  1  1  1
  2  3  1  0
  3  4  1  0
  4  5  2  0
  4  6  1  0
  6  7  1  6
  6  8  1  0
  2  9  1  0
  9 10  2  0
 10 11  1  0
 11 12  2  0
 12 13  1  0
 13 14  2  0
 14  9  1  0
A    1
 C1 
A    2
 C2 
A    3
 N1 
A    4
 C3 
A    5
 O1 
A    6
 C4 
A    7
 C5 
A    8
 N2 
A    9
 C6 
A   10
 C7 
A   11
 C8 
A   12
 C9 
A   13
 C10
A   14
 C11
M  END
>  <ref_pdb>  (31) 
x0554_0A

>  <ref_mols>  (31) 
x0566_0A

>  <original SMILES>  (31) 
C[C@H](NC(=O)[C@@H](C)N)c1ccccc1

>  <rationale>  (31) 
info cluster #9 (rank 3); hbond:H21+S87+T126; hydroph_interaction:Y90; 

>  <cluster_rank>  (31) 
3

>  <N_interactions>  (31) 
4

>  <N_interactions_lost>  (31) 
1

>  <∆∆G>  (31) 
-7.332447

>  <comRMSD>  (31) 
0.885594

>  <N_rotatable_bonds>  (31) 
6

>  <N_unconstrained_atoms>  (31) 
2

>  <N_constrained_atoms>  (31) 
13

>  <price>  (31) 
0

$$$$
PV_002301311817
     RDKit          3D

 15 16  0  0  0  0  0  0  0  0999 V2000
   11.9110   14.4020   22.4870 C   0  0  0  0  0  0  0  0  0  0  0  0
   11.1350   13.6130   23.5290 C   0  0  0  0  0  0  0  0  0  0  0  0
   11.1530   13.9330   24.7080 O   0  0  0  0  0  0  0  0  0  0  0  0
   10.4680   12.5610   22.9440 N   0  0  0  0  0  0  0  0  0  0  0  0
    9.8080   11.4320   23.5050 C   0  0  0  0  0  0  0  0  0  0  0  0
   10.2470   10.1810   23.0950 C   0  0  0  0  0  0  0  0  0  0  0  0
    9.6650    8.8620   23.5650 C   0  0  0  0  0  0  0  0  0  0  0  0
    8.5390    9.0690   24.5490 C   0  0  0  0  0  0  0  0  0  0  0  0
    8.1550   10.3440   24.9080 C   0  0  0  0  0  0  0  0  0  0  0  0
    7.0820   10.2150   25.8290 N   0  0  0  0  0  0  0  0  0  0  0  0
    6.5560   11.3570   26.3070 C   0  0  0  0  0  0  0  0  0  0  0  0
    5.2640   11.1890   27.4180 Cl  0  0  0  0  0  0  0  0  0  0  0  0
    7.0630   12.5960   25.8990 C   0  0  0  0  0  0  0  0  0  0  0  0
    8.1420   12.7090   24.9740 C   0  0  0  0  0  0  0  0  0  0  0  0
    8.7210   11.5380   24.4470 C   0  0  0  0  0  0  0  0  0  0  0  0
  1  2  1  0
  2  3  2  0
  2  4  1  0
  4  5  1  0
  5  6  2  0
  6  7  1  0
  7  8  2  0
  8  9  1  0
  9 10  2  0
 10 11  1  0
 11 12  1  0
 11 13  2  0
 13 14  1  0
 14 15  2  0
 15  5  1  0
 15  9  1  0
A    1
 C1 
A    2
 C2 
A    3
 O1 
A    4
 N1 
A    5
 C3 
A    6
 C4 
A    7
 C5 
A    8
 C6 
A    9
 C7 
A   10
 N2 
A   11
 C8 
A   12
CL1 
A   13
 C9 
A   14
 C10
A   15
 C11
M  END
>  <ref_pdb>  (32) 
x0554_0A

>  <ref_mols>  (32) 
x0554_0A,x0451_0A

>  <original SMILES>  (32) 
CC(=O)Nc1cccc2nc(Cl)ccc12

>  <rationale>  (32) 
info cluster #8 (rank 4); hbond:S125; hydroph_interaction:Y89+D109+V124; 

>  <cluster_rank>  (32) 
4

>  <N_interactions>  (32) 
4

>  <N_interactions_lost>  (32) 
1

>  <∆∆G>  (32) 
-6.976555

>  <comRMSD>  (32) 
0.746264

>  <N_rotatable_bonds>  (32) 
2

>  <N_unconstrained_atoms>  (32) 
1

>  <N_constrained_atoms>  (32) 
16

>  <price>  (32) 
0

$$$$
Z28182054
     RDKit          3D

 14 15  0  0  0  0  0  0  0  0999 V2000
   11.9440   14.4180   22.5920 C   0  0  0  0  0  0  0  0  0  0  0  0
   11.1180   13.5700   23.4910 C   0  0  0  0  0  0  0  0  0  0  0  0
   11.0300   13.8850   24.6700 O   0  0  0  0  0  0  0  0  0  0  0  0
   10.5350   12.5150   22.9330 N   0  0  0  0  0  0  0  0  0  0  0  0
    9.8290   11.4190   23.5160 C   0  0  0  0  0  0  0  0  0  0  0  0
   10.2450   10.0300   23.0860 C   0  0  0  0  0  0  0  0  0  0  0  0
    9.5560    8.8670   23.6340 C   0  0  0  0  0  0  0  0  0  0  0  0
    8.5420    9.0620   24.5320 C   0  0  0  0  0  0  0  0  0  0  0  0
    8.1350   10.3330   24.9410 C   0  0  0  0  0  0  0  0  0  0  0  0
    7.0920   10.3850   25.8440 C   0  0  0  0  0  0  0  0  0  0  0  0
    6.5690   11.5100   26.3480 N   0  0  0  0  0  0  0  0  0  0  0  0
    7.1290   12.6500   25.9160 C   0  0  0  0  0  0  0  0  0  0  0  0
    8.1770   12.7230   25.0130 C   0  0  0  0  0  0  0  0  0  0  0  0
    8.7390   11.5350   24.4700 C   0  0  0  0  0  0  0  0  0  0  0  0
  1  2  1  0
  2  3  2  0
  2  4  1  0
  4  5  1  0
  5  6  2  0
  6  7  1  0
  7  8  2  0
  8  9  1  0
  9 10  2  0
 10 11  1  0
 11 12  2  0
 12 13  1  0
 13 14  2  0
 14  5  1  0
 14  9  1  0
A    1
 C1 
A    2
 C2 
A    3
 O1 
A    4
 N1 
A    5
 C3 
A    6
 C4 
A    7
 C5 
A    8
 C6 
A    9
 C7 
A   10
 C8 
A   11
 N2 
A   12
 C9 
A   13
 C10
A   14
 C11
M  END
>  <ref_pdb>  (33) 
x0554_0A

>  <ref_mols>  (33) 
x0554_0A,x0451_0A

>  <original SMILES>  (33) 
CC(=O)Nc1cccc2cnccc12

>  <rationale>  (33) 
info cluster #5 (rank 4); hbond:S125; hydroph_interaction:Y89+D109; 

>  <cluster_rank>  (33) 
4

>  <N_interactions>  (33) 
3

>  <N_interactions_lost>  (33) 
1

>  <∆∆G>  (33) 
-7.743783

>  <comRMSD>  (33) 
0.769185

>  <N_rotatable_bonds>  (33) 
2

>  <N_unconstrained_atoms>  (33) 
0

>  <N_constrained_atoms>  (33) 
16

>  <price>  (33) 
104

$$$$
Z55293777
     RDKit          3D

 15 16  0  0  0  0  0  0  0  0999 V2000
   11.9740   15.2270   21.8270 C   0  0  0  0  0  0  0  0  0  0  0  0
   12.0010   13.8700   22.3300 N   0  0  0  0  0  0  0  0  0  0  0  0
   11.2040   13.4930   23.4050 C   0  0  0  0  0  0  0  0  0  0  0  0
   11.2140   14.0160   24.5090 O   0  0  0  0  0  0  0  0  0  0  0  0
   10.4580   12.4480   22.9410 N   0  0  0  0  0  0  0  0  0  0  0  0
    9.7720   11.3530   23.5380 C   0  0  0  0  0  0  0  0  0  0  0  0
   10.2020   10.0800   23.1500 C   0  0  0  0  0  0  0  0  0  0  0  0
    9.6150    8.9410   23.6340 C   0  0  0  0  0  0  0  0  0  0  0  0
    8.5750    9.0400   24.5240 C   0  0  0  0  0  0  0  0  0  0  0  0
    8.0950   10.2660   24.9520 C   0  0  0  0  0  0  0  0  0  0  0  0
    7.0290   10.2590   25.8550 C   0  0  0  0  0  0  0  0  0  0  0  0
    6.4940   11.4320   26.3340 C   0  0  0  0  0  0  0  0  0  0  0  0
    7.0260   12.6390   25.9090 C   0  0  0  0  0  0  0  0  0  0  0  0
    8.0960   12.6670   24.9980 C   0  0  0  0  0  0  0  0  0  0  0  0
    8.6770   11.4740   24.4790 C   0  0  0  0  0  0  0  0  0  0  0  0
  1  2  1  0
  2  3  1  0
  3  4  2  0
  3  5  1  0
  5  6  1  0
  6  7  2  0
  7  8  1  0
  8  9  2  0
  9 10  1  0
 10 11  2  0
 11 12  1  0
 12 13  2  0
 13 14  1  0
 14 15  2  0
 15  6  1  0
 15 10  1  0
A    1
 C1 
A    2
 N1 
A    3
 C2 
A    4
 O1 
A    5
 N2 
A    6
 C3 
A    7
 C4 
A    8
 C5 
A    9
 C6 
A   10
 C7 
A   11
 C8 
A   12
 C9 
A   13
 C10
A   14
 C11
A   15
 C12
M  END
>  <ref_pdb>  (34) 
x0554_0A

>  <ref_mols>  (34) 
x0554_0A,x0451_0A

>  <original SMILES>  (34) 
CNC(=O)Nc1cccc2ccccc12

>  <rationale>  (34) 
info cluster #0 (rank 4); hbond:H21+S125; 

>  <cluster_rank>  (34) 
4

>  <N_interactions>  (34) 
2

>  <N_interactions_lost>  (34) 
1

>  <∆∆G>  (34) 
-8.786285

>  <comRMSD>  (34) 
0.763691

>  <N_rotatable_bonds>  (34) 
2

>  <N_unconstrained_atoms>  (34) 
1

>  <N_constrained_atoms>  (34) 
16

>  <price>  (34) 
0

$$$$
Z1802626342
     RDKit          3D

 16 17  0  0  0  0  0  0  0  0999 V2000
   11.1500   14.7500   19.7500 C   0  0  0  0  0  0  0  0  0  0  0  0
   10.1340   15.2020   20.7750 C   0  0  0  0  0  0  0  0  0  0  0  0
    9.7870   16.6250   20.7510 C   0  0  0  0  0  0  0  0  0  0  0  0
   10.5720   14.8270   22.0780 C   0  0  0  0  0  0  0  0  0  0  0  0
   10.8780   15.6410   22.9580 O   0  0  0  0  0  0  0  0  0  0  0  0
   10.6060   13.4560   22.2440 N   0  0  0  0  0  0  0  0  0  0  0  0
   11.0200   12.7940   23.4450 C   0  0  0  0  0  0  0  0  0  0  0  0
    9.9950   11.7270   23.8810 C   0  0  0  0  0  0  0  0  0  0  0  0
   10.2650   10.2890   23.3970 C   0  0  0  0  0  0  0  0  0  0  0  0
    9.3210    9.1750   23.8010 C   0  0  0  0  0  0  0  0  0  0  0  0
    8.2630    9.5870   24.6020 C   0  0  0  0  0  0  0  0  0  0  0  0
    7.9890   10.9500   25.0540 C   0  0  0  0  0  0  0  0  0  0  0  0
    8.8560   11.9890   24.6850 C   0  0  0  0  0  0  0  0  0  0  0  0
    8.3700   13.1600   25.2410 N   0  0  0  0  0  0  0  0  0  0  0  0
    7.2310   12.8850   25.9410 C   0  0  0  0  0  0  0  0  0  0  0  0
    6.9650   11.5250   25.8500 C   0  0  0  0  0  0  0  0  0  0  0  0
  1  2  1  0
  2  3  1  0
  2  4  1  0
  4  5  2  0
  4  6  1  0
  6  7  1  0
  7  8  1  0
  8  9  2  0
  9 10  1  0
 10 11  2  0
 11 12  1  0
 12 13  2  0
 13 14  1  0
 14 15  1  0
 15 16  2  0
 13  8  1  0
 16 12  1  0
A    1
 C1 
A    2
 C2 
A    3
 C3 
A    4
 C4 
A    5
 O1 
A    6
 N1 
A    7
 C5 
A    8
 C6 
A    9
 C7 
A   10
 C8 
A   11
 C9 
A   12
 C10
A   13
 C11
A   14
 N2 
A   15
 C12
A   16
 C13
M  END
>  <ref_pdb>  (35) 
x0554_0A

>  <ref_mols>  (35) 
x0554_0A

>  <original SMILES>  (35) 
CC(C)C(=O)NCc1cccc2cc[nH]c12

>  <rationale>  (35) 
info cluster #2 (rank 4); hbond:S87+S125; hydroph_interaction:Y90+V84; 

>  <cluster_rank>  (35) 
4

>  <N_interactions>  (35) 
4

>  <N_interactions_lost>  (35) 
1

>  <∆∆G>  (35) 
-8.960917

>  <comRMSD>  (35) 
0.447441

>  <N_rotatable_bonds>  (35) 
5

>  <N_unconstrained_atoms>  (35) 
2

>  <N_constrained_atoms>  (35) 
14

>  <price>  (35) 
0

$$$$
Z118714404
     RDKit          3D

 15 16  0  0  0  0  0  0  0  0999 V2000
   10.6470    8.7620   23.1350 C   0  0  0  0  0  0  0  0  0  0  0  0
    9.3040    8.9780   23.7260 C   0  0  0  0  0  0  0  0  0  0  0  0
    9.2130   10.3680   24.0050 N   0  0  0  0  0  0  0  0  0  0  0  0
   10.0320   11.2810   23.4110 C   0  0  0  0  0  0  0  0  0  0  0  0
    9.7000   12.5320   23.8690 C   0  0  0  0  0  0  0  0  0  0  0  0
   10.3820   13.7540   23.4370 C   0  0  0  0  0  0  0  0  0  0  0  0
   10.3740   14.7820   24.1140 O   0  0  0  0  0  0  0  0  0  0  0  0
   11.0520   13.6990   22.2100 N   0  0  0  0  0  0  0  0  0  0  0  0
   12.0650   14.6520   21.9270 N   0  0  0  0  0  0  0  0  0  0  0  0
    8.6130   12.3330   24.7960 C   0  0  0  0  0  0  0  0  0  0  0  0
    7.8200   13.1760   25.5970 C   0  0  0  0  0  0  0  0  0  0  0  0
    6.8150   12.6410   26.4100 C   0  0  0  0  0  0  0  0  0  0  0  0
    6.5840   11.2780   26.4480 C   0  0  0  0  0  0  0  0  0  0  0  0
    7.3460   10.4250   25.6780 C   0  0  0  0  0  0  0  0  0  0  0  0
    8.3420   10.9670   24.8600 C   0  0  0  0  0  0  0  0  0  0  0  0
  1  2  1  0
  2  3  1  0
  3  4  1  0
  4  5  2  0
  5  6  1  0
  6  7  2  0
  6  8  1  0
  8  9  1  0
  5 10  1  0
 10 11  2  0
 11 12  1  0
 12 13  2  0
 13 14  1  0
 14 15  2  0
 15  3  1  0
 15 10  1  0
A    1
 C1 
A    2
 C2 
A    3
 N1 
A    4
 C3 
A    5
 C4 
A    6
 C5 
A    7
 O1 
A    8
 N2 
A    9
 N3 
A   10
 C6 
A   11
 C7 
A   12
 C8 
A   13
 C9 
A   14
 C10
A   15
 C11
M  END
>  <ref_pdb>  (36) 
x0554_0A

>  <ref_mols>  (36) 
x0451_0A,x0451_0A,x0554_0A

>  <original SMILES>  (36) 
CCn1cc(C(=O)NN)c2ccccc21

>  <rationale>  (36) 
info cluster #7 (rank 4); hbond:S87+S125; hydroph_interaction:A110+D109+V124; 

>  <cluster_rank>  (36) 
4

>  <N_interactions>  (36) 
5

>  <N_interactions_lost>  (36) 
2

>  <∆∆G>  (36) 
-6.943407

>  <comRMSD>  (36) 
0.710132

>  <N_rotatable_bonds>  (36) 
4

>  <N_unconstrained_atoms>  (36) 
1

>  <N_constrained_atoms>  (36) 
15

>  <price>  (36) 
163

$$$$
Z3953577274
     RDKit          3D

 12 12  0  0  0  0  0  0  0  0999 V2000
    9.9060    9.0370   23.9620 C   0  0  0  0  0  0  0  0  0  0  0  0
    9.1550   10.2680   24.3110 C   0  0  0  0  0  0  0  0  0  0  0  0
    7.9600   10.1500   25.2240 C   0  0  0  0  0  0  0  0  0  0  0  0
    7.1970   11.2470   25.5780 C   0  0  0  0  0  0  0  0  0  0  0  0
    6.0320   11.1200   26.4620 C   0  0  0  0  0  0  0  0  0  0  0  0
    5.6930    9.8110   26.6700 N   0  0  0  0  0  0  0  0  0  0  0  0
    5.4260   12.0690   26.9480 O   0  0  0  0  0  0  0  0  0  0  0  0
    7.5940   12.4830   25.0480 C   0  0  0  0  0  0  0  0  0  0  0  0
    6.9110   13.6000   25.3310 N   0  0  0  0  0  0  0  0  0  0  0  0
    8.6950   12.6480   24.2140 C   0  0  0  0  0  0  0  0  0  0  0  0
    9.4670   11.5370   23.8570 C   0  0  0  0  0  0  0  0  0  0  0  0
   10.5270   11.7140   23.0570 F   0  0  0  0  0  0  0  0  0  0  0  0
  1  2  1  0
  2  3  2  0
  3  4  1  0
  4  5  1  0
  5  6  1  0
  5  7  2  0
  4  8  2  0
  8  9  1  0
  8 10  1  0
 10 11  2  0
 11 12  1  0
 11  2  1  0
A    1
 C1 
A    2
 C2 
A    3
 C3 
A    4
 C4 
A    5
 C5 
A    6
 N1 
A    7
 O1 
A    8
 C6 
A    9
 N2 
A   10
 C7 
A   11
 C8 
A   12
 F1 
M  END
>  <ref_pdb>  (37) 
x0554_0A

>  <ref_mols>  (37) 
x0416_0A,x0556_0A

>  <original SMILES>  (37) 
Cc1cc(C(N)=O)c(N)cc1F

>  <rationale>  (37) 
info cluster #6 (rank 4); halogenbond:S125; hbond:S105; hydroph_interaction:D109; 

>  <cluster_rank>  (37) 
4

>  <N_interactions>  (37) 
3

>  <N_interactions_lost>  (37) 
1

>  <∆∆G>  (37) 
-5.865591

>  <comRMSD>  (37) 
0.948427

>  <N_rotatable_bonds>  (37) 
3

>  <N_unconstrained_atoms>  (37) 
2

>  <N_constrained_atoms>  (37) 
12

>  <price>  (37) 
0

$$$$
Z1727255376
     RDKit          3D

 15 16  0  0  0  0  0  0  0  0999 V2000
    9.7120   16.2980   21.2190 N   0  0  0  0  0  0  0  0  0  0  0  0
    9.9550   14.9640   21.2820 C   0  0  0  0  0  0  0  0  0  0  0  0
   10.5700   14.3640   20.4140 O   0  0  0  0  0  0  0  0  0  0  0  0
    9.3890   14.2540   22.5250 C   0  0  0  0  0  0  0  0  0  0  0  0
    8.4400   14.7860   23.0860 O   0  0  0  0  0  0  0  0  0  0  0  0
   10.0600   13.0760   22.8440 N   0  0  0  0  0  0  0  0  0  0  0  0
    9.5440   11.9470   23.5420 C   0  0  0  0  0  0  0  0  0  0  0  0
   10.1170   10.5420   23.2360 C   0  0  0  0  0  0  0  0  0  0  0  0
    9.4660    9.4690   24.0410 C   0  0  0  0  0  0  0  0  0  0  0  0
    8.4630    9.7090   24.9600 C   0  0  0  0  0  0  0  0  0  0  0  0
    7.9700   10.9760   25.2120 C   0  0  0  0  0  0  0  0  0  0  0  0
    8.5110   12.0640   24.5090 C   0  0  0  0  0  0  0  0  0  0  0  0
    7.8260   13.1710   24.9750 N   0  0  0  0  0  0  0  0  0  0  0  0
    6.8970   12.8200   25.9210 C   0  0  0  0  0  0  0  0  0  0  0  0
    6.9630   11.4600   26.0880 C   0  0  0  0  0  0  0  0  0  0  0  0
  1  2  1  0
  2  3  2  0
  2  4  1  0
  4  5  2  0
  4  6  1  0
  6  7  1  0
  7  8  2  0
  8  9  1  0
  9 10  2  0
 10 11  1  0
 11 12  2  0
 12 13  1  0
 13 14  1  0
 14 15  2  0
 12  7  1  0
 15 11  1  0
A    1
 N1 
A    2
 C1 
A    3
 O1 
A    4
 C2 
A    5
 O2 
A    6
 N2 
A    7
 C3 
A    8
 C4 
A    9
 C5 
A   10
 C6 
A   11
 C7 
A   12
 C8 
A   13
 N3 
A   14
 C9 
A   15
 C10
M  END
>  <ref_pdb>  (38) 
x0554_0A

>  <ref_mols>  (38) 
x0566_0A

>  <original SMILES>  (38) 
NC(=O)C(=O)Nc1cccc2cc[nH]c12

>  <rationale>  (38) 
info cluster #3 (rank 4); hbond:S87+S125; 

>  <cluster_rank>  (38) 
4

>  <N_interactions>  (38) 
3

>  <N_interactions_lost>  (38) 
1

>  <∆∆G>  (38) 
-3.659075

>  <comRMSD>  (38) 
0.503653

>  <N_rotatable_bonds>  (38) 
1

>  <N_unconstrained_atoms>  (38) 
1

>  <N_constrained_atoms>  (38) 
15

>  <price>  (38) 
0

$$$$
PV_003377434323
     RDKit          3D

 11 11  0  0  0  0  0  0  0  0999 V2000
   10.2470   14.5800   21.3890 N   0  0  0  0  0  0  0  0  0  0  0  0
   10.4300   14.2840   22.7220 C   0  0  0  0  0  0  0  0  0  0  0  0
   11.4710   14.5690   23.2860 O   0  0  0  0  0  0  0  0  0  0  0  0
    9.2510   13.6670   23.4810 C   0  0  1  0  0  0  0  0  0  0  0  0
    8.0700   14.0000   22.7410 N   0  0  0  0  0  0  0  0  0  0  0  0
    9.2240   12.1560   23.7880 C   0  0  0  0  0  0  0  0  0  0  0  0
   10.0580   11.1050   23.3560 C   0  0  0  0  0  0  0  0  0  0  0  0
    9.8710    9.7630   23.7410 C   0  0  0  0  0  0  0  0  0  0  0  0
    8.8210    9.4460   24.5940 C   0  0  0  0  0  0  0  0  0  0  0  0
    7.9540   10.4500   25.0650 C   0  0  0  0  0  0  0  0  0  0  0  0
    8.1950   11.7500   24.6400 C   0  0  0  0  0  0  0  0  0  0  0  0
  1  2  1  0
  2  3  2  0
  2  4  1  0
  4  5  1  6
  4  6  1  0
  6  7  2  0
  7  8  1  0
  8  9  2  0
  9 10  1  0
 10 11  2  0
 11  6  1  0
A    1
 N1 
A    2
 C1 
A    3
 O1 
A    4
 C2 
A    5
 N2 
A    6
 C3 
A    7
 C4 
A    8
 C5 
A    9
 C6 
A   10
 C7 
A   11
 C8 
M  END
>  <ref_pdb>  (39) 
x0554_0A

>  <ref_mols>  (39) 
x0566_0A

>  <original SMILES>  (39) 
NC(=O)[C@@H](N)c1ccccc1

>  <rationale>  (39) 
info cluster #1 (rank 4); hbond:G127+T126; 

>  <cluster_rank>  (39) 
4

>  <N_interactions>  (39) 
3

>  <N_interactions_lost>  (39) 
0

>  <∆∆G>  (39) 
-4.48345

>  <comRMSD>  (39) 
0.865475

>  <N_rotatable_bonds>  (39) 
3

>  <N_unconstrained_atoms>  (39) 
0

>  <N_constrained_atoms>  (39) 
13

>  <price>  (39) 
0

$$$$
Z1291216771
     RDKit          3D

 15 16  0  0  0  0  0  0  0  0999 V2000
    9.1810   16.0920   21.2250 C   0  0  0  0  0  0  0  0  0  0  0  0
   10.1190   14.9830   21.6760 C   0  0  0  0  0  0  0  0  0  0  0  0
   11.0220   14.5230   20.4980 C   0  0  0  0  0  0  0  0  0  0  0  0
    9.4470   14.0280   22.1340 O   0  0  0  0  0  0  0  0  0  0  0  0
   10.2270   13.2040   22.9170 C   0  0  0  0  0  0  0  0  0  0  0  0
   11.4310   13.3430   23.0200 O   0  0  0  0  0  0  0  0  0  0  0  0
    9.5120   12.0780   23.6670 C   0  0  0  0  0  0  0  0  0  0  0  0
   10.0740   10.8320   23.3240 C   0  0  0  0  0  0  0  0  0  0  0  0
    9.5880    9.6750   23.9010 C   0  0  0  0  0  0  0  0  0  0  0  0
    8.5560    9.7150   24.8160 C   0  0  0  0  0  0  0  0  0  0  0  0
    7.9780   10.9350   25.1670 C   0  0  0  0  0  0  0  0  0  0  0  0
    8.4630   12.1140   24.5880 C   0  0  0  0  0  0  0  0  0  0  0  0
    7.7190   13.1480   25.1170 N   0  0  0  0  0  0  0  0  0  0  0  0
    6.7890   12.6610   26.0010 C   0  0  0  0  0  0  0  0  0  0  0  0
    6.9270   11.2940   26.0510 C   0  0  0  0  0  0  0  0  0  0  0  0
  1  2  1  0
  2  3  1  0
  2  4  1  0
  4  5  1  0
  5  6  2  0
  5  7  1  0
  7  8  2  0
  8  9  1  0
  9 10  2  0
 10 11  1  0
 11 12  2  0
 12 13  1  0
 13 14  1  0
 14 15  2  0
 12  7  1  0
 15 11  1  0
A    1
 C1 
A    2
 C2 
A    3
 C3 
A    4
 O1 
A    5
 C4 
A    6
 O2 
A    7
 C5 
A    8
 C6 
A    9
 C7 
A   10
 C8 
A   11
 C9 
A   12
 C10
A   13
 N1 
A   14
 C11
A   15
 C12
M  END
>  <ref_pdb>  (40) 
x0554_0A

>  <ref_mols>  (40) 
x0566_0A

>  <original SMILES>  (40) 
CC(C)OC(=O)c1cccc2cc[nH]c12

>  <rationale>  (40) 
info cluster #4 (rank 4); hydroph_interaction:V84; saltbridge:H21; 

>  <cluster_rank>  (40) 
4

>  <N_interactions>  (40) 
2

>  <N_interactions_lost>  (40) 
0

>  <∆∆G>  (40) 
-6.906004

>  <comRMSD>  (40) 
0.575055

>  <N_rotatable_bonds>  (40) 
4

>  <N_unconstrained_atoms>  (40) 
0

>  <N_constrained_atoms>  (40) 
16

>  <price>  (40) 
163

$$$$
Z2351821240
     RDKit          3D

 22 22  0  0  0  0  0  0  0  0999 V2000
    7.2730   13.2320   24.6130 C   0  0  0  0  0  0  0  0  0  0  0  0
    7.7890   11.8010   24.6120 C   0  0  0  0  0  0  0  0  0  0  0  0
    9.0130   11.4900   23.8030 C   0  0  0  0  0  0  0  0  0  0  0  0
    9.1720   10.1140   24.0640 C   0  0  0  0  0  0  0  0  0  0  0  0
   10.2770    9.2640   23.5370 C   0  0  0  0  0  0  0  0  0  0  0  0
   11.4090   10.0940   23.9280 N   0  0  0  0  0  0  0  0  0  0  0  0
   11.0690   11.4560   23.4840 C   0  0  0  0  0  0  0  0  0  0  0  0
   12.2040   12.4490   23.1590 C   0  0  1  0  0  0  0  0  0  0  0  0
   11.6940   13.5130   22.2670 N   0  0  0  0  0  0  0  0  0  0  0  0
   10.6640   14.3990   22.4960 C   0  0  0  0  0  0  0  0  0  0  0  0
   10.3870   14.9140   23.5700 O   0  0  0  0  0  0  0  0  0  0  0  0
   10.0290   14.6250   21.3010 O   0  0  0  0  0  0  0  0  0  0  0  0
   10.8120   15.3130   20.2880 C   0  0  0  0  0  0  0  0  0  0  0  0
   12.1220   15.4700   20.7520 C   0  0  0  0  0  0  0  0  0  0  0  0
   10.8080   14.6690   18.9010 C   0  0  0  0  0  0  0  0  0  0  0  0
   10.1220   16.6830   20.1690 C   0  0  0  0  0  0  0  0  0  0  0  0
   12.9510   12.9200   24.4280 C   0  0  0  0  0  0  0  0  0  0  0  0
   12.3110   12.3210   25.6490 C   0  0  0  0  0  0  0  0  0  0  0  0
   14.4150   12.4880   24.5520 C   0  0  0  0  0  0  0  0  0  0  0  0
    8.2180    9.6120   24.8800 N   0  0  0  0  0  0  0  0  0  0  0  0
    7.4000   10.6420   25.2010 N   0  0  0  0  0  0  0  0  0  0  0  0
    6.2770   10.4320   26.0780 C   0  0  0  0  0  0  0  0  0  0  0  0
  1  2  1  0
  2  3  2  0
  3  4  1  0
  4  5  1  0
  5  6  1  0
  6  7  1  0
  8  7  1  1
  8  9  1  0
  9 10  1  0
 10 11  2  0
 10 12  1  0
 12 13  1  0
 13 14  1  0
 13 15  1  0
 13 16  1  0
  8 17  1  0
 17 18  1  0
 17 19  1  0
  4 20  2  0
 20 21  1  0
 21 22  1  0
 21  2  1  0
A    1
 C1 
A    2
 C2 
A    3
 C3 
A    4
 C4 
A    5
 C5 
A    6
 N1 
A    7
 C6 
A    8
 C7 
A    9
 N2 
A   10
 C8 
A   11
 O1 
A   12
 O2 
A   13
 C9 
A   14
 C10
A   15
 C11
A   16
 C12
A   17
 C13
A   18
 C14
A   19
 C15
A   20
 N3 
A   21
 N4 
A   22
 C16
M  END
>  <ref_pdb>  (41) 
x0554_0A

>  <ref_mols>  (41) 
x0310_0A

>  <original SMILES>  (41) 
Cc1cc(CNCC(NC(=O)OC(C)(C)C)C(C)C)nn1C

>  <rationale>  (41) 
info cluster #9 (rank 4); hbond:G108+A110+H21+S87+D109+E106; hydroph_interaction:Y89+A110; 

>  <cluster_rank>  (41) 
4

>  <N_interactions>  (41) 
8

>  <N_interactions_lost>  (41) 
2

>  <∆∆G>  (41) 
-8.931121

>  <comRMSD>  (41) 
0.728744

>  <N_rotatable_bonds>  (41) 
10

>  <N_unconstrained_atoms>  (41) 
4

>  <N_constrained_atoms>  (41) 
20

>  <price>  (41) 
0

$$$$
Z1564906283
     RDKit          3D

 15 16  0  0  0  0  0  0  0  0999 V2000
   11.9690   14.4160   22.5250 C   0  0  0  0  0  0  0  0  0  0  0  0
   11.0790   13.8100   23.6030 C   0  0  0  0  0  0  0  0  0  0  0  0
   11.2760   14.0110   24.7910 O   0  0  0  0  0  0  0  0  0  0  0  0
   10.0880   13.0460   23.0460 N   0  0  0  0  0  0  0  0  0  0  0  0
    9.4920   11.9070   23.6490 C   0  0  0  0  0  0  0  0  0  0  0  0
   10.0260   10.7120   23.2500 C   0  0  0  0  0  0  0  0  0  0  0  0
    9.4990    9.4640   23.7670 C   0  0  0  0  0  0  0  0  0  0  0  0
   10.2540    8.3860   23.1680 C   0  0  0  0  0  0  0  0  0  0  0  0
    8.4840    9.4000   24.6480 C   0  0  0  0  0  0  0  0  0  0  0  0
    7.9250   10.5950   25.0790 C   0  0  0  0  0  0  0  0  0  0  0  0
    6.8160   10.5330   26.0440 C   0  0  0  0  0  0  0  0  0  0  0  0
    6.2440   11.6270   26.4940 C   0  0  0  0  0  0  0  0  0  0  0  0
    6.7340   12.8560   26.0140 C   0  0  0  0  0  0  0  0  0  0  0  0
    7.8170   13.0230   25.0660 N   0  0  0  0  0  0  0  0  0  0  0  0
    8.3970   11.8790   24.6090 C   0  0  0  0  0  0  0  0  0  0  0  0
  1  2  1  0
  2  3  2  0
  2  4  1  0
  4  5  1  0
  5  6  2  0
  6  7  1  0
  7  8  1  0
  7  9  2  0
  9 10  1  0
 10 11  2  0
 11 12  1  0
 12 13  2  0
 13 14  1  0
 14 15  2  0
 15  5  1  0
 15 10  1  0
A    1
 C1 
A    2
 C2 
A    3
 O1 
A    4
 N1 
A    5
 C3 
A    6
 C4 
A    7
 C5 
A    8
 C6 
A    9
 C7 
A   10
 C8 
A   11
 C9 
A   12
 C10
A   13
 C11
A   14
 N2 
A   15
 C12
M  END
>  <ref_pdb>  (42) 
x0554_0A

>  <ref_mols>  (42) 
x0554_0A,x0451_0A

>  <original SMILES>  (42) 
CC(=O)Nc1cc(C)cc2cccnc12

>  <rationale>  (42) 
info cluster #8 (rank 5); hbond:S125; hydroph_interaction:Y89+D109+V124; 

>  <cluster_rank>  (42) 
5

>  <N_interactions>  (42) 
4

>  <N_interactions_lost>  (42) 
1

>  <∆∆G>  (42) 
-8.327559

>  <comRMSD>  (42) 
0.717782

>  <N_rotatable_bonds>  (42) 
3

>  <N_unconstrained_atoms>  (42) 
1

>  <N_constrained_atoms>  (42) 
15

>  <price>  (42) 
0

$$$$
Z2017875808
     RDKit          3D

 15 16  0  0  0  0  0  0  0  0999 V2000
   11.8940   14.4580   22.4630 C   0  0  0  0  0  0  0  0  0  0  0  0
   11.1450   13.6310   23.5060 C   0  0  0  0  0  0  0  0  0  0  0  0
   11.1320   13.9510   24.6860 O   0  0  0  0  0  0  0  0  0  0  0  0
   10.5420   12.5480   22.9140 N   0  0  0  0  0  0  0  0  0  0  0  0
    9.8710   11.4330   23.4750 C   0  0  0  0  0  0  0  0  0  0  0  0
   10.3010   10.0890   23.0800 C   0  0  0  0  0  0  0  0  0  0  0  0
    9.6320    8.8920   23.6240 C   0  0  0  0  0  0  0  0  0  0  0  0
    8.5150    9.0250   24.5770 C   0  0  0  0  0  0  0  0  0  0  0  0
    8.1530   10.3100   24.9040 C   0  0  0  0  0  0  0  0  0  0  0  0
    6.9960   10.2480   25.8710 C   0  0  0  0  0  0  0  0  0  0  0  0
    6.4500   11.5530   26.3530 C   0  0  0  0  0  0  0  0  0  0  0  0
    7.0470   12.7010   25.8770 C   0  0  0  0  0  0  0  0  0  0  0  0
    6.5770   13.8880   26.2940 F   0  0  0  0  0  0  0  0  0  0  0  0
    8.1350   12.6930   24.9660 C   0  0  0  0  0  0  0  0  0  0  0  0
    8.7460   11.5150   24.4280 C   0  0  0  0  0  0  0  0  0  0  0  0
  1  2  1  0
  2  3  2  0
  2  4  1  0
  4  5  1  0
  5  6  2  0
  6  7  1  0
  7  8  2  0
  8  9  1  0
  9 10  2  0
 10 11  1  0
 11 12  2  0
 12 13  1  0
 12 14  1  0
 14 15  2  0
 15  5  1  0
 15  9  1  0
A    1
 C1 
A    2
 C2 
A    3
 O1 
A    4
 N1 
A    5
 C3 
A    6
 C4 
A    7
 C5 
A    8
 C6 
A    9
 C7 
A   10
 C8 
A   11
 C9 
A   12
 C10
A   13
 F1 
A   14
 C11
A   15
 C12
M  END
>  <ref_pdb>  (43) 
x0554_0A

>  <ref_mols>  (43) 
x0554_0A,x0451_0A

>  <original SMILES>  (43) 
CC(=O)Nc1cccc2ccc(F)cc12

>  <rationale>  (43) 
info cluster #5 (rank 5); hbond:S125; hydroph_interaction:Y89+D109; 

>  <cluster_rank>  (43) 
5

>  <N_interactions>  (43) 
3

>  <N_interactions_lost>  (43) 
1

>  <∆∆G>  (43) 
-8.102771

>  <comRMSD>  (43) 
0.784847

>  <N_rotatable_bonds>  (43) 
2

>  <N_unconstrained_atoms>  (43) 
1

>  <N_constrained_atoms>  (43) 
16

>  <price>  (43) 
0

$$$$
Z410202728
     RDKit          3D

 12 12  0  0  0  0  0  0  0  0999 V2000
    8.2650   13.5370   24.5770 C   0  0  0  0  0  0  0  0  0  0  0  0
    8.5300   12.0550   24.4350 C   0  0  0  0  0  0  0  0  0  0  0  0
    7.5030   11.2130   25.1470 C   0  0  0  0  0  0  0  0  0  0  0  0
    7.5990    9.8170   25.1070 C   0  0  0  0  0  0  0  0  0  0  0  0
    8.7350    9.1720   24.3440 C   0  0  0  0  0  0  0  0  0  0  0  0
    9.6560   10.0150   23.7080 C   0  0  0  0  0  0  0  0  0  0  0  0
   10.7150    9.2040   23.0130 C   0  0  0  0  0  0  0  0  0  0  0  0
    9.5910   11.4380   23.7320 C   0  0  0  0  0  0  0  0  0  0  0  0
   10.6090   12.1720   23.0430 N   0  0  0  0  0  0  0  0  0  0  0  0
   11.1370   13.4800   23.3930 C   0  0  0  0  0  0  0  0  0  0  0  0
   11.7560   14.0930   22.3330 N   0  0  0  0  0  0  0  0  0  0  0  0
   11.0820   14.0430   24.4730 O   0  0  0  0  0  0  0  0  0  0  0  0
  1  2  1  0
  2  3  2  0
  3  4  1  0
  4  5  2  0
  5  6  1  0
  6  7  1  0
  6  8  2  0
  8  9  1  0
  9 10  1  0
 10 11  1  0
 10 12  2  0
  8  2  1  0
A    1
 C1 
A    2
 C2 
A    3
 C3 
A    4
 C4 
A    5
 C5 
A    6
 C6 
A    7
 C7 
A    8
 C8 
A    9
 N1 
A   10
 C9 
A   11
 N2 
A   12
 O1 
M  END
>  <ref_pdb>  (44) 
x0554_0A

>  <ref_mols>  (44) 
x0554_0A,x0310_0A

>  <original SMILES>  (44) 
Cc1cccc(C)c1NC(N)=O

>  <rationale>  (44) 
info cluster #0 (rank 5); hbond:S125; hydroph_interaction:A110+V124; 

>  <cluster_rank>  (44) 
5

>  <N_interactions>  (44) 
4

>  <N_interactions_lost>  (44) 
1

>  <∆∆G>  (44) 
-7.458596

>  <comRMSD>  (44) 
0.664691

>  <N_rotatable_bonds>  (44) 
3

>  <N_unconstrained_atoms>  (44) 
1

>  <N_constrained_atoms>  (44) 
13

>  <price>  (44) 
0

$$$$
Z1725019223
     RDKit          3D

 17 17  0  0  0  0  0  0  0  0999 V2000
    9.6440    8.7930   23.3010 C   0  0  0  0  0  0  0  0  0  0  0  0
    9.0460   10.0140   23.8990 C   0  0  0  0  0  0  0  0  0  0  0  0
    7.9770    9.8940   24.7100 N   0  0  0  0  0  0  0  0  0  0  0  0
    7.6640   11.1510   25.1100 N   0  0  0  0  0  0  0  0  0  0  0  0
    6.5460   11.3790   26.0730 C   0  0  0  0  0  0  0  0  0  0  0  0
    5.4690   12.4570   25.9260 C   0  0  0  0  0  0  0  0  0  0  0  0
    7.2960   12.1250   27.1140 C   0  0  0  0  0  0  0  0  0  0  0  0
    5.9220   10.0950   26.6270 C   0  0  0  0  0  0  0  0  0  0  0  0
    8.5100   12.0740   24.5490 C   0  0  0  0  0  0  0  0  0  0  0  0
    8.4050   13.5820   24.8030 C   0  0  0  0  0  0  0  0  0  0  0  0
    9.4240   11.3710   23.7740 C   0  0  0  0  0  0  0  0  0  0  0  0
   10.4350   12.0500   23.1050 N   0  0  0  0  0  0  0  0  0  0  0  0
   11.1330   13.1080   23.6370 C   0  0  0  0  0  0  0  0  0  0  0  0
   11.0700   13.4910   24.7970 O   0  0  0  0  0  0  0  0  0  0  0  0
   11.9680   13.7950   22.7360 C   0  0  0  0  0  0  0  0  0  0  0  0
   11.8350   15.1060   22.2560 C   0  0  0  0  0  0  0  0  0  0  0  0
   11.6730   16.2010   21.9350 N   0  0  0  0  0  0  0  0  0  0  0  0
  1  2  1  0
  2  3  2  0
  3  4  1  0
  4  5  1  0
  5  6  1  0
  5  7  1  0
  5  8  1  0
  4  9  1  0
  9 10  1  0
  9 11  2  0
 11 12  1  0
 12 13  1  0
 13 14  2  0
 13 15  1  0
 15 16  1  0
 16 17  3  0
 11  2  1  0
A    1
 C1 
A    2
 C2 
A    3
 N1 
A    4
 N2 
A    5
 C3 
A    6
 C4 
A    7
 C5 
A    8
 C6 
A    9
 C7 
A   10
 C8 
A   11
 C9 
A   12
 N3 
A   13
 C10
A   14
 O1 
A   15
 C11
A   16
 C12
A   17
 N4 
M  END
>  <ref_pdb>  (45) 
x0554_0A

>  <ref_mols>  (45) 
x0310_0A,x0556_0A

>  <original SMILES>  (45) 
Cc1nn(C(C)(C)C)c(C)c1NC(=O)CC#N

>  <rationale>  (45) 
info cluster #7 (rank 5); hbond:S87+S125; hydroph_interaction:Y89+P107+D109+V124; 

>  <cluster_rank>  (45) 
5

>  <N_interactions>  (45) 
6

>  <N_interactions_lost>  (45) 
3

>  <∆∆G>  (45) 
-7.863139

>  <comRMSD>  (45) 
0.604116

>  <N_rotatable_bonds>  (45) 
4

>  <N_unconstrained_atoms>  (45) 
1

>  <N_constrained_atoms>  (45) 
16

>  <price>  (45) 
0

$$$$
Z4292421166
     RDKit          3D

 16 16  0  0  0  0  0  0  0  0999 V2000
    7.4340   10.3170   25.6540 C   0  0  0  0  0  0  0  0  0  0  0  0
    8.4270   11.0090   24.8140 C   0  0  0  0  0  0  0  0  0  0  0  0
    8.6810   12.3380   24.7030 C   0  0  0  0  0  0  0  0  0  0  0  0
    8.0280   13.2970   25.3780 N   0  0  0  0  0  0  0  0  0  0  0  0
    9.7320   12.4930   23.7670 C   0  0  0  0  0  0  0  0  0  0  0  0
   10.3000   13.8100   23.3670 C   0  0  0  0  0  0  0  0  0  0  0  0
   10.3370   14.7210   24.2010 O   0  0  0  0  0  0  0  0  0  0  0  0
   10.7860   14.0040   22.0590 N   0  0  0  0  0  0  0  0  0  0  0  0
   12.2080   13.8620   21.9130 C   0  0  0  0  0  0  0  0  0  0  0  0
   10.2440   15.1000   21.2070 C   0  0  0  0  0  0  0  0  0  0  0  0
    8.7520   15.3740   21.4620 C   0  0  0  0  0  0  0  0  0  0  0  0
   10.4870   14.8580   19.6920 C   0  0  0  0  0  0  0  0  0  0  0  0
   11.0230   16.3570   21.5190 C   0  0  0  0  0  0  0  0  0  0  0  0
   10.1210   11.2750   23.3110 N   0  0  0  0  0  0  0  0  0  0  0  0
    9.3150   10.4040   23.9530 N   0  0  0  0  0  0  0  0  0  0  0  0
    9.4630    8.9880   23.6820 C   0  0  0  0  0  0  0  0  0  0  0  0
  1  2  1  0
  2  3  2  0
  3  4  1  0
  3  5  1  0
  5  6  1  0
  6  7  2  0
  6  8  1  0
  8  9  1  0
  8 10  1  0
 10 11  1  0
 10 12  1  0
 10 13  1  0
  5 14  2  0
 14 15  1  0
 15 16  1  0
 15  2  1  0
A    1
 C1 
A    2
 C2 
A    3
 C3 
A    4
 N1 
A    5
 C4 
A    6
 C5 
A    7
 O1 
A    8
 N2 
A    9
 C6 
A   10
 C7 
A   11
 C8 
A   12
 C9 
A   13
 C10
A   14
 N3 
A   15
 N4 
A   16
 C11
M  END
>  <ref_pdb>  (46) 
x0554_0A

>  <ref_mols>  (46) 
x0451_0A,x0556_0A

>  <original SMILES>  (46) 
Cc1c(N)c(C(=O)N(C)C(C)(C)C)nn1C

>  <rationale>  (46) 
info cluster #2 (rank 5); hydroph_interaction:Y90+V84; 

>  <cluster_rank>  (46) 
5

>  <N_interactions>  (46) 
2

>  <N_interactions_lost>  (46) 
0

>  <∆∆G>  (46) 
-10.258186

>  <comRMSD>  (46) 
0.94381

>  <N_rotatable_bonds>  (46) 
5

>  <N_unconstrained_atoms>  (46) 
1

>  <N_constrained_atoms>  (46) 
17

>  <price>  (46) 
0

$$$$
Z2042431932
     RDKit          3D

 16 17  0  0  0  0  0  0  0  0999 V2000
   12.0560   14.5110   21.8730 C   0  0  0  0  0  0  0  0  0  0  0  0
   11.4930   13.3060   22.4850 N   0  0  0  0  0  0  0  0  0  0  0  0
   10.0850   13.5380   23.3840 S   0  0  0  0  0  6  0  0  0  0  0  0
   10.4770   14.2120   24.5960 O   0  0  0  0  0  0  0  0  0  0  0  0
    9.0790   14.0880   22.4820 O   0  0  0  0  0  0  0  0  0  0  0  0
    9.3800   12.0210   23.8930 C   0  0  0  0  0  0  0  0  0  0  0  0
    9.7070   10.6600   23.5960 C   0  0  0  0  0  0  0  0  0  0  0  0
   10.7880   10.3710   22.8120 C   0  0  0  0  0  0  0  0  0  0  0  0
    8.8670    9.7920   24.1520 N   0  0  0  0  0  0  0  0  0  0  0  0
    8.9630    8.3670   23.9500 C   0  0  0  0  0  0  0  0  0  0  0  0
    7.9370   10.5700   24.9290 C   0  0  0  0  0  0  0  0  0  0  0  0
    6.9030   10.1000   25.7060 C   0  0  0  0  0  0  0  0  0  0  0  0
    6.1430   11.0640   26.3680 C   0  0  0  0  0  0  0  0  0  0  0  0
    6.4130   12.4010   26.2430 C   0  0  0  0  0  0  0  0  0  0  0  0
    7.4470   12.8300   25.4570 C   0  0  0  0  0  0  0  0  0  0  0  0
    8.2490   11.9360   24.7740 C   0  0  0  0  0  0  0  0  0  0  0  0
  1  2  1  0
  2  3  1  0
  3  4  2  0
  3  5  2  0
  3  6  1  0
  6  7  2  0
  7  8  1  0
  7  9  1  0
  9 10  1  0
  9 11  1  0
 11 12  2  0
 12 13  1  0
 13 14  2  0
 14 15  1  0
 15 16  2  0
 16  6  1  0
 16 11  1  0
A    1
 C1 
A    2
 N1 
A    3
 S1 
A    4
 O1 
A    5
 O2 
A    6
 C2 
A    7
 C3 
A    8
 C4 
A    9
 N2 
A   10
 C5 
A   11
 C6 
A   12
 C7 
A   13
 C8 
A   14
 C9 
A   15
 C10
A   16
 C11
M  END
>  <ref_pdb>  (47) 
x0554_0A

>  <ref_mols>  (47) 
x0451_0A,x0566_0A

>  <original SMILES>  (47) 
CNS(=O)(=O)c1c(C)n(C)c2ccccc12

>  <rationale>  (47) 
info cluster #6 (rank 5); hbond:H21; hydroph_interaction:A110; 

>  <cluster_rank>  (47) 
5

>  <N_interactions>  (47) 
2

>  <N_interactions_lost>  (47) 
0

>  <∆∆G>  (47) 
-10.08466

>  <comRMSD>  (47) 
0.599604

>  <N_rotatable_bonds>  (47) 
5

>  <N_unconstrained_atoms>  (47) 
1

>  <N_constrained_atoms>  (47) 
15

>  <price>  (47) 
0

$$$$
PV_006865159225
     RDKit          3D

 24 25  0  0  0  0  0  0  0  0999 V2000
   15.9500   12.5380   27.3060 C   0  0  0  0  0  0  0  0  0  0  0  0
   15.0130   12.1900   26.1860 C   0  0  0  0  0  0  0  0  0  0  0  0
   14.4950   11.6280   24.8900 C   0  0  0  0  0  0  0  0  0  0  0  0
   13.0290   11.8160   24.6320 N   0  0  0  0  0  0  0  0  0  0  0  0
   12.4400   12.9600   24.0990 C   0  0  0  0  0  0  0  0  0  0  0  0
   13.0900   13.8500   23.5890 O   0  0  0  0  0  0  0  0  0  0  0  0
   10.8750   13.0270   24.2490 C   0  0  1  0  0  0  0  0  0  0  0  0
   10.1770   11.8220   24.1380 C   0  0  0  0  0  0  0  0  0  0  0  0
   10.7420   10.8150   23.3840 C   0  0  0  0  0  0  0  0  0  0  0  0
   10.0430    9.4900   23.2500 C   0  0  0  0  0  0  0  0  0  0  0  0
    8.8360    9.2990   23.8820 C   0  0  0  0  0  0  0  0  0  0  0  0
    8.2610   10.3470   24.6470 C   0  0  0  0  0  0  0  0  0  0  0  0
    8.9300   11.5690   24.7590 C   0  0  0  0  0  0  0  0  0  0  0  0
   10.7570   13.6010   25.7030 C   0  0  0  0  0  0  0  0  0  0  0  0
    9.8020   14.6180   25.6010 C   0  0  0  0  0  0  0  0  0  0  0  0
    9.1860   14.6590   24.3590 C   0  0  0  0  0  0  0  0  0  0  0  0
   10.1560   14.0740   23.4740 N   0  0  0  0  0  0  0  0  0  0  0  0
   10.6750   14.8990   22.5170 C   0  0  0  0  0  0  0  0  0  0  0  0
   11.4050   15.8310   22.7850 O   0  0  0  0  0  0  0  0  0  0  0  0
   10.2470   14.6150   21.2510 O   0  0  0  0  0  0  0  0  0  0  0  0
   10.8540   15.3580   20.1730 C   0  0  0  0  0  0  0  0  0  0  0  0
   10.2570   16.7730   20.1010 C   0  0  0  0  0  0  0  0  0  0  0  0
   12.3140   15.4130   20.6250 C   0  0  0  0  0  0  0  0  0  0  0  0
   10.8330   14.6620   18.8150 C   0  0  0  0  0  0  0  0  0  0  0  0
  1  2  2  0
  2  3  1  0
  3  4  1  0
  4  5  1  0
  5  6  2  0
  7  5  1  6
  7  8  1  0
  8  9  2  0
  9 10  1  0
 10 11  2  0
 11 12  1  0
 12 13  2  0
  7 14  1  0
 14 15  1  0
 15 16  1  0
 16 17  1  0
 17 18  1  0
 18 19  2  0
 18 20  1  0
 20 21  1  0
 21 22  1  0
 21 23  1  0
 21 24  1  0
 17  7  1  0
 13  8  1  0
A    1
 C1 
A    2
 C2 
A    3
 C3 
A    4
 N1 
A    5
 C4 
A    6
 O1 
A    7
 C5 
A    8
 C6 
A    9
 C7 
A   10
 C8 
A   11
 C9 
A   12
 C10
A   13
 C11
A   14
 C12
A   15
 C13
A   16
 C14
A   17
 N2 
A   18
 C15
A   19
 O2 
A   20
 O3 
A   21
 C16
A   22
 C17
A   23
 C18
A   24
 C19
M  END
>  <ref_pdb>  (48) 
x0554_0A

>  <ref_mols>  (48) 
x0554_0A

>  <original SMILES>  (48) 
C=CCNC(=O)C1(c2ccccc2)CCCN1C(=O)OC(C)(C)C

>  <rationale>  (48) 
info cluster #3 (rank 5); hbond:G108+S87; hydroph_interaction:Y89+A110; 

>  <cluster_rank>  (48) 
5

>  <N_interactions>  (48) 
4

>  <N_interactions_lost>  (48) 
2

>  <∆∆G>  (48) 
-10.447403

>  <comRMSD>  (48) 
0.948081

>  <N_rotatable_bonds>  (48) 
4

>  <N_unconstrained_atoms>  (48) 
5

>  <N_constrained_atoms>  (48) 
20

>  <price>  (48) 
0

$$$$
Z1698592395
     RDKit          3D

 15 16  0  0  0  0  0  0  0  0999 V2000
    9.3440   16.2880   20.9960 C   0  0  0  0  0  0  0  0  0  0  0  0
   10.1920   15.1670   21.5380 C   0  0  0  0  0  0  0  0  0  0  0  0
   11.0720   14.6260   20.4040 C   0  0  0  0  0  0  0  0  0  0  0  0
    9.4740   14.1340   22.1640 N   0  0  0  0  0  0  0  0  0  0  0  0
   10.2110   13.2230   22.9230 C   0  0  0  0  0  0  0  0  0  0  0  0
   11.4190   13.3660   23.0470 O   0  0  0  0  0  0  0  0  0  0  0  0
    9.5790   12.0180   23.6120 C   0  0  0  0  0  0  0  0  0  0  0  0
   10.0880   10.7430   23.3100 C   0  0  0  0  0  0  0  0  0  0  0  0
    9.5750    9.5900   23.9120 C   0  0  0  0  0  0  0  0  0  0  0  0
    8.5420    9.7070   24.8270 C   0  0  0  0  0  0  0  0  0  0  0  0
    7.9980   10.9310   25.1550 C   0  0  0  0  0  0  0  0  0  0  0  0
    8.5140   12.0880   24.5510 C   0  0  0  0  0  0  0  0  0  0  0  0
    7.6650   13.4740   25.1400 S   0  0  0  0  0  0  0  0  0  0  0  0
    6.6580   12.5560   26.1500 C   0  0  0  0  0  0  0  0  0  0  0  0
    6.9330   11.2170   26.0680 C   0  0  0  0  0  0  0  0  0  0  0  0
  1  2  1  0
  2  3  1  0
  2  4  1  0
  4  5  1  0
  5  6  2  0
  5  7  1  0
  7  8  2  0
  8  9  1  0
  9 10  2  0
 10 11  1  0
 11 12  2  0
 12 13  1  0
 13 14  1  0
 14 15  2  0
 12  7  1  0
 15 11  1  0
A    1
 C1 
A    2
 C2 
A    3
 C3 
A    4
 N1 
A    5
 C4 
A    6
 O1 
A    7
 C5 
A    8
 C6 
A    9
 C7 
A   10
 C8 
A   11
 C9 
A   12
 C10
A   13
 S1 
A   14
 C11
A   15
 C12
M  END
>  <ref_pdb>  (49) 
x0554_0A

>  <ref_mols>  (49) 
x0566_0A

>  <original SMILES>  (49) 
CC(C)NC(=O)c1cccc2ccsc12

>  <rationale>  (49) 
info cluster #1 (rank 5); hbond:T126; hydroph_interaction:V84; 

>  <cluster_rank>  (49) 
5

>  <N_interactions>  (49) 
2

>  <N_interactions_lost>  (49) 
0

>  <∆∆G>  (49) 
-7.012753

>  <comRMSD>  (49) 
0.582041

>  <N_rotatable_bonds>  (49) 
4

>  <N_unconstrained_atoms>  (49) 
0

>  <N_constrained_atoms>  (49) 
16

>  <price>  (49) 
0

$$$$
PV_002930247595
     RDKit          3D

 14 15  0  0  0  0  0  0  0  0999 V2000
   11.9710   14.4690   21.9470 C   0  0  0  0  0  0  0  0  0  0  0  0
   10.7200   13.8060   22.1720 O   0  0  0  0  0  0  0  0  0  0  0  0
   10.4710   13.5060   23.4780 C   0  0  0  0  0  0  0  0  0  0  0  0
   10.8210   14.2780   24.3550 O   0  0  0  0  0  0  0  0  0  0  0  0
    9.7440   12.2240   23.8350 C   0  0  0  0  0  0  0  0  0  0  0  0
   10.2120   10.9400   23.2240 C   0  0  0  0  0  0  0  0  0  0  0  0
    9.3480   10.0060   23.7510 N   0  0  0  0  0  0  0  0  0  0  0  0
    9.3860    8.5920   23.4530 C   0  0  0  0  0  0  0  0  0  0  0  0
    8.4170   10.5980   24.6230 C   0  0  0  0  0  0  0  0  0  0  0  0
    7.3940   10.0480   25.3640 C   0  0  0  0  0  0  0  0  0  0  0  0
    6.6120   10.8730   26.1490 C   0  0  0  0  0  0  0  0  0  0  0  0
    6.8360   12.2580   26.2120 C   0  0  0  0  0  0  0  0  0  0  0  0
    7.8600   12.8150   25.4760 C   0  0  0  0  0  0  0  0  0  0  0  0
    8.6520   11.9740   24.6790 C   0  0  0  0  0  0  0  0  0  0  0  0
  1  2  1  0
  2  3  1  0
  3  4  2  0
  3  5  1  0
  5  6  2  0
  6  7  1  0
  7  8  1  0
  7  9  1  0
  9 10  2  0
 10 11  1  0
 11 12  2  0
 12 13  1  0
 13 14  2  0
 14  5  1  0
 14  9  1  0
A    1
 C1 
A    2
 O1 
A    3
 C2 
A    4
 O2 
A    5
 C3 
A    6
 C4 
A    7
 N1 
A    8
 C5 
A    9
 C6 
A   10
 C7 
A   11
 C8 
A   12
 C9 
A   13
 C10
A   14
 C11
M  END
>  <ref_pdb>  (50) 
x0554_0A

>  <ref_mols>  (50) 
x0451_0A,x0451_0A

>  <original SMILES>  (50) 
COC(=O)c1cn(C)c2ccccc12

>  <rationale>  (50) 
info cluster #4 (rank 5); saltbridge:H21; 

>  <cluster_rank>  (50) 
5

>  <N_interactions>  (50) 
1

>  <N_interactions_lost>  (50) 
0

>  <∆∆G>  (50) 
-7.470545

>  <comRMSD>  (50) 
0.363556

>  <N_rotatable_bonds>  (50) 
3

>  <N_unconstrained_atoms>  (50) 
0

>  <N_constrained_atoms>  (50) 
14

>  <price>  (50) 
0

$$$$
Z3522605065
     RDKit          3D

 15 15  0  0  0  0  0  0  0  0999 V2000
   10.5980    9.7160   22.8480 C   0  0  0  0  0  0  0  0  0  0  0  0
    9.5440   10.5150   23.5550 C   0  0  0  0  0  0  0  0  0  0  0  0
    9.6360   11.9630   23.5590 C   0  0  0  0  0  0  0  0  0  0  0  0
    8.6400   12.6810   24.2040 C   0  0  0  0  0  0  0  0  0  0  0  0
    8.7030   14.0670   24.1770 C   0  0  0  0  0  0  0  0  0  0  0  0
    8.7050   14.5920   22.9140 N   0  0  0  0  0  0  0  0  0  0  0  0
    9.8800   15.0910   22.4570 C   0  0  0  0  0  0  0  0  0  0  0  0
   10.8090   15.2790   23.2370 O   0  0  0  0  0  0  0  0  0  0  0  0
    9.9970   15.4390   20.9630 C   0  0  2  0  0  0  0  0  0  0  0  0
   11.1850   14.7390   20.2960 C   0  0  0  0  0  0  0  0  0  0  0  0
   10.1170   16.8810   20.7290 N   0  0  0  0  0  0  0  0  0  0  0  0
    7.6210   11.9450   24.8320 C   0  0  0  0  0  0  0  0  0  0  0  0
    7.5400   10.5760   24.8310 N   0  0  0  0  0  0  0  0  0  0  0  0
    8.5290    9.9260   24.1620 C   0  0  0  0  0  0  0  0  0  0  0  0
    8.6880    8.0760   23.9180 Br  0  0  0  0  0  0  0  0  0  0  0  0
  1  2  1  0
  2  3  2  0
  3  4  1  0
  4  5  1  0
  5  6  1  0
  6  7  1  0
  7  8  2  0
  7  9  1  0
  9 10  1  1
  9 11  1  0
  4 12  2  0
 12 13  1  0
 13 14  2  0
 14 15  1  0
 14  2  1  0
A    1
 C1 
A    2
 C2 
A    3
 C3 
A    4
 C4 
A    5
 C5 
A    6
 N1 
A    7
 C6 
A    8
 O1 
A    9
 C7 
A   10
 C8 
A   11
 N2 
A   12
 C9 
A   13
 N3 
A   14
 C10
A   15
BR1 
M  END
>  <ref_pdb>  (51) 
x0554_0A

>  <ref_mols>  (51) 
x0416_0A

>  <original SMILES>  (51) 
Cc1cc(CNC(=O)[C@H](C)N)cnc1Br

>  <rationale>  (51) 
info cluster #9 (rank 5); hbond:S87+T126; hydroph_interaction:A110+V124; 

>  <cluster_rank>  (51) 
5

>  <N_interactions>  (51) 
5

>  <N_interactions_lost>  (51) 
1

>  <∆∆G>  (51) 
-6.300643

>  <comRMSD>  (51) 
0.604166

>  <N_rotatable_bonds>  (51) 
6

>  <N_unconstrained_atoms>  (51) 
3

>  <N_constrained_atoms>  (51) 
12

>  <price>  (51) 
0

$$$$
Z2824629131
     RDKit          3D

 14 14  0  0  0  0  0  0  0  0999 V2000
    8.7570    7.6340   23.3720 C   0  0  0  0  0  0  0  0  0  0  0  0
    8.8220    9.0890   23.7960 C   0  0  0  0  0  0  0  0  0  0  0  0
    9.9140    9.9300   23.0910 C   0  0  0  0  0  0  0  0  0  0  0  0
    9.9490   11.3990   23.5330 C   0  0  0  0  0  0  0  0  0  0  0  0
   10.8680   12.3260   22.9990 N   0  0  0  0  0  0  0  0  0  0  0  0
   11.1500   13.6050   23.4450 C   0  0  0  0  0  0  0  0  0  0  0  0
   11.1900   13.9750   24.6100 O   0  0  0  0  0  0  0  0  0  0  0  0
   11.4030   14.5190   22.2880 C   0  0  0  0  0  0  0  0  0  0  0  0
   10.6410   14.5130   21.1060 C   0  0  2  0  0  0  0  0  0  0  0  0
   11.2020   14.8790   19.8790 C   0  0  0  0  0  0  0  0  0  0  0  0
    9.3960   15.2750   21.2700 N   0  0  0  0  0  0  0  0  0  0  0  0
    9.0350   11.8520   24.4970 C   0  0  0  0  0  0  0  0  0  0  0  0
    8.0830   11.0160   25.0810 C   0  0  0  0  0  0  0  0  0  0  0  0
    7.9790    9.6650   24.7480 C   0  0  0  0  0  0  0  0  0  0  0  0
  1  2  1  0
  2  3  2  0
  3  4  1  0
  4  5  1  0
  5  6  1  0
  6  7  2  0
  6  8  1  0
  8  9  1  0
  9 10  1  6
  9 11  1  0
  4 12  2  0
 12 13  1  0
 13 14  2  0
 14  2  1  0
A    1
 C1 
A    2
 C2 
A    3
 C3 
A    4
 C4 
A    5
 N1 
A    6
 C5 
A    7
 O1 
A    8
 C6 
A    9
 C7 
A   10
 C8 
A   11
 N2 
A   12
 C9 
A   13
 C10
A   14
 C11
M  END
>  <ref_pdb>  (52) 
x0554_0A

>  <ref_mols>  (52) 
x0554_0A

>  <original SMILES>  (52) 
Cc1cccc(NC(=O)C[C@H](C)N)c1

>  <rationale>  (52) 
info cluster #8 (rank 6); hbond:S125+T126; hydroph_interaction:Y90+D109+V124; 

>  <cluster_rank>  (52) 
6

>  <N_interactions>  (52) 
5

>  <N_interactions_lost>  (52) 
1

>  <∆∆G>  (52) 
-9.816247

>  <comRMSD>  (52) 
0.588284

>  <N_rotatable_bonds>  (52) 
6

>  <N_unconstrained_atoms>  (52) 
1

>  <N_constrained_atoms>  (52) 
14

>  <price>  (52) 
0

$$$$
Z3234957804
     RDKit          3D

 15 16  0  0  0  0  0  0  0  0999 V2000
   11.7880   14.1670   22.5180 C   0  0  0  0  0  0  0  0  0  0  0  0
   11.0130   13.3900   23.5550 C   0  0  0  0  0  0  0  0  0  0  0  0
   10.9040   13.7850   24.7070 O   0  0  0  0  0  0  0  0  0  0  0  0
   10.4640   12.2170   23.0840 N   0  0  0  0  0  0  0  0  0  0  0  0
    9.5070   11.3670   23.8180 C   0  0  0  0  0  0  0  0  0  0  0  0
    9.6170    9.8650   23.5120 C   0  0  0  0  0  0  0  0  0  0  0  0
   10.6180    9.4010   22.5410 C   0  0  0  0  0  0  0  0  0  0  0  0
    8.8190    8.9270   24.1000 C   0  0  0  0  0  0  0  0  0  0  0  0
    7.7930    9.4030   25.0840 C   0  0  0  0  0  0  0  0  0  0  0  0
    7.7090   10.8140   25.3350 C   0  0  0  0  0  0  0  0  0  0  0  0
    6.6680   10.9670   26.2710 N   0  0  0  0  0  0  0  0  0  0  0  0
    6.3950   12.2370   26.6640 C   0  0  0  0  0  0  0  0  0  0  0  0
    7.1460   13.2950   26.1370 C   0  0  0  0  0  0  0  0  0  0  0  0
    8.1800   13.0780   25.2030 C   0  0  0  0  0  0  0  0  0  0  0  0
    8.5060   11.8010   24.7570 C   0  0  0  0  0  0  0  0  0  0  0  0
  1  2  1  0
  2  3  2  0
  2  4  1  0
  4  5  1  0
  5  6  2  0
  6  7  1  0
  6  8  1  0
  8  9  2  0
  9 10  1  0
 10 11  2  0
 11 12  1  0
 12 13  2  0
 13 14  1  0
 14 15  2  0
 15  5  1  0
 15 10  1  0
A    1
 C1 
A    2
 C2 
A    3
 O1 
A    4
 N1 
A    5
 C3 
A    6
 C4 
A    7
 C5 
A    8
 C6 
A    9
 C7 
A   10
 C8 
A   11
 N2 
A   12
 C9 
A   13
 C10
A   14
 C11
A   15
 C12
M  END
>  <ref_pdb>  (53) 
x0554_0A

>  <ref_mols>  (53) 
x0554_0A,x0451_0A

>  <original SMILES>  (53) 
CC(=O)Nc1c(C)ccc2ncccc12

>  <rationale>  (53) 
info cluster #5 (rank 6); hbond:S125; hydroph_interaction:Y89+A110+V124; 

>  <cluster_rank>  (53) 
6

>  <N_interactions>  (53) 
4

>  <N_interactions_lost>  (53) 
1

>  <∆∆G>  (53) 
-7.562921

>  <comRMSD>  (53) 
0.87446

>  <N_rotatable_bonds>  (53) 
3

>  <N_unconstrained_atoms>  (53) 
1

>  <N_constrained_atoms>  (53) 
15

>  <price>  (53) 
0

$$$$
Z1728705763
     RDKit          3D

 14 15  0  0  0  0  0  0  0  0999 V2000
   12.1170   15.0650   21.5710 C   0  0  0  0  0  0  0  0  0  0  0  0
   11.1780   13.9960   21.8600 N   0  0  0  0  0  0  0  0  0  0  0  0
   10.8900   13.5650   23.1430 C   0  0  0  0  0  0  0  0  0  0  0  0
   10.7020   14.5660   24.4660 S   0  0  0  0  0  0  0  0  0  0  0  0
   10.8110   12.1890   23.0700 N   0  0  0  0  0  0  0  0  0  0  0  0
    9.8870   11.2710   23.6660 C   0  0  0  0  0  0  0  0  0  0  0  0
    9.9620    9.8910   23.4530 C   0  0  0  0  0  0  0  0  0  0  0  0
    8.9840    9.0130   24.0990 C   0  0  0  0  0  0  0  0  0  0  0  0
    7.9900    9.5280   24.9180 C   0  0  0  0  0  0  0  0  0  0  0  0
    7.9150   10.8990   25.1230 C   0  0  0  0  0  0  0  0  0  0  0  0
    8.8430   11.7440   24.5090 C   0  0  0  0  0  0  0  0  0  0  0  0
    8.4980   13.0220   24.9080 N   0  0  0  0  0  0  0  0  0  0  0  0
    7.4050   12.9990   25.7380 C   0  0  0  0  0  0  0  0  0  0  0  0
    7.0250   11.6910   25.8870 C   0  0  0  0  0  0  0  0  0  0  0  0
  1  2  1  0
  2  3  1  0
  3  4  2  0
  3  5  1  0
  5  6  1  0
  6  7  2  0
  7  8  1  0
  8  9  2  0
  9 10  1  0
 10 11  2  0
 11 12  1  0
 12 13  1  0
 13 14  2  0
 11  6  1  0
 14 10  1  0
A    1
 C1 
A    2
 N1 
A    3
 C2 
A    4
 S1 
A    5
 N2 
A    6
 C3 
A    7
 C4 
A    8
 C5 
A    9
 C6 
A   10
 C7 
A   11
 C8 
A   12
 N3 
A   13
 C9 
A   14
 C10
M  END
>  <ref_pdb>  (54) 
x0554_0A

>  <ref_mols>  (54) 
x0554_0A,x0451_0A

>  <original SMILES>  (54) 
CNC(=S)Nc1cccc2cc[nH]c12

>  <rationale>  (54) 
info cluster #0 (rank 6); hbond:S125; 

>  <cluster_rank>  (54) 
6

>  <N_interactions>  (54) 
2

>  <N_interactions_lost>  (54) 
1

>  <∆∆G>  (54) 
-7.808783

>  <comRMSD>  (54) 
0.670162

>  <N_rotatable_bonds>  (54) 
2

>  <N_unconstrained_atoms>  (54) 
0

>  <N_constrained_atoms>  (54) 
15

>  <price>  (54) 
0

$$$$
Z5480246511
     RDKit          3D

 15 15  0  0  0  0  0  0  0  0999 V2000
    9.4270   17.2410   20.5720 C   0  0  0  0  0  0  0  0  0  0  0  0
    9.0070   15.8280   20.6830 C   0  0  0  0  0  0  0  0  0  0  0  0
    9.8200   15.1020   21.6140 N   0  0  0  0  0  0  0  0  0  0  0  0
    9.2380   14.2370   22.5090 C   0  0  0  0  0  0  0  0  0  0  0  0
    8.0440   14.0360   22.5840 O   0  0  0  0  0  0  0  0  0  0  0  0
   10.1580   13.5790   23.3330 C   0  0  2  0  0  0  0  0  0  0  0  0
   11.5520   13.2930   22.8660 C   0  0  0  0  0  0  0  0  0  0  0  0
    9.5660   12.2710   23.8330 C   0  0  0  0  0  0  0  0  0  0  0  0
   10.0780   10.9470   23.2790 C   0  0  0  0  0  0  0  0  0  0  0  0
    9.4450    9.7120   23.8210 C   0  0  0  0  0  0  0  0  0  0  0  0
    9.8920    8.4110   23.2950 C   0  0  0  0  0  0  0  0  0  0  0  0
    8.4690    9.8400   24.7800 C   0  0  0  0  0  0  0  0  0  0  0  0
    7.9990   11.0360   25.2690 C   0  0  0  0  0  0  0  0  0  0  0  0
    6.8990   10.9850   26.2960 C   0  0  0  0  0  0  0  0  0  0  0  0
    8.5390   12.2480   24.8040 C   0  0  0  0  0  0  0  0  0  0  0  0
  1  2  1  0
  2  3  1  0
  3  4  1  0
  4  5  2  0
  4  6  1  0
  6  7  1  6
  6  8  1  0
  8  9  2  0
  9 10  1  0
 10 11  1  0
 10 12  2  0
 12 13  1  0
 13 14  1  0
 13 15  2  0
 15  8  1  0
A    1
 C1 
A    2
 C2 
A    3
 N1 
A    4
 C3 
A    5
 O1 
A    6
 C4 
A    7
 C5 
A    8
 C6 
A    9
 C7 
A   10
 C8 
A   11
 C9 
A   12
 C10
A   13
 C11
A   14
 C12
A   15
 C13
M  END
>  <ref_pdb>  (55) 
x0554_0A

>  <ref_mols>  (55) 
x0566_0A,x0310_0A

>  <original SMILES>  (55) 
CCNC(=O)C(C)c1cc(C)cc(C)c1

>  <rationale>  (55) 
info cluster #7 (rank 6); hbond:S87+G127; hydroph_interaction:Y90+D109+V124+V84; 

>  <cluster_rank>  (55) 
6

>  <N_interactions>  (55) 
6

>  <N_interactions_lost>  (55) 
2

>  <∆∆G>  (55) 
-9.574342

>  <comRMSD>  (55) 
0.884588

>  <N_rotatable_bonds>  (55) 
7

>  <N_unconstrained_atoms>  (55) 
4

>  <N_constrained_atoms>  (55) 
16

>  <price>  (55) 
0

$$$$
PV_007034081845
     RDKit          3D

 17 19  0  0  0  0  0  0  0  0999 V2000
    9.4930    8.5210   23.3800 C   0  0  0  0  0  0  0  0  0  0  0  0
    9.4300    9.9180   23.7190 N   0  0  0  0  0  0  0  0  0  0  0  0
   10.2510   10.8750   23.2540 C   0  0  0  0  0  0  0  0  0  0  0  0
    9.8580   12.1880   23.8370 C   0  0  0  0  0  0  0  0  0  0  0  0
   10.4010   13.4610   23.6650 C   0  0  0  0  0  0  0  0  0  0  0  0
   11.3700   13.5500   22.5860 N   0  0  0  0  0  0  0  0  0  0  0  0
   11.3250   14.9470   22.1790 C   0  0  1  0  0  0  0  0  0  0  0  0
   12.1090   15.5190   21.1380 C   0  0  0  0  0  0  0  0  0  0  0  0
   10.7400   15.4140   20.6880 C   0  0  0  0  0  0  0  0  0  0  0  0
   10.8310   14.6040   19.4040 C   0  0  0  0  0  0  0  0  0  0  0  0
    9.8230   16.6060   20.6330 C   0  0  0  0  0  0  0  0  0  0  0  0
    8.7360   11.8940   24.6780 C   0  0  0  0  0  0  0  0  0  0  0  0
    7.9200   12.9220   25.5400 C   0  0  0  0  0  0  0  0  0  0  0  0
    6.7220   12.3460   26.3930 C   0  0  0  0  0  0  0  0  0  0  0  0
    6.5640   10.8170   26.2280 C   0  0  0  0  0  0  0  0  0  0  0  0
    7.4180    9.9370   25.3700 C   0  0  0  0  0  0  0  0  0  0  0  0
    8.5240   10.5130   24.5770 C   0  0  0  0  0  0  0  0  0  0  0  0
  1  2  1  0
  2  3  1  0
  3  4  2  0
  4  5  1  0
  5  6  1  0
  7  6  1  6
  7  8  1  0
  8  9  1  0
  9 10  1  0
  9 11  1  0
  4 12  1  0
 12 13  2  0
 13 14  1  0
 14 15  2  0
 15 16  1  0
 16 17  2  0
 17  2  1  0
  9  7  1  0
 17 12  1  0
A    1
 C1 
A    2
 N1 
A    3
 C2 
A    4
 C3 
A    5
 C4 
A    6
 N2 
A    7
 C5 
A    8
 C6 
A    9
 C7 
A   10
 C8 
A   11
 C9 
A   12
 C10
A   13
 C11
A   14
 C12
A   15
 C13
A   16
 C14
A   17
 C15
M  END
>  <ref_pdb>  (56) 
x0554_0A

>  <ref_mols>  (56) 
x0451_0A

>  <original SMILES>  (56) 
Cn1cc(CNC2CC2(C)C)c2ccccc21

>  <rationale>  (56) 
info cluster #2 (rank 6); hbond:H21; hydroph_interaction:Y90+V84; 

>  <cluster_rank>  (56) 
6

>  <N_interactions>  (56) 
3

>  <N_interactions_lost>  (56) 
0

>  <∆∆G>  (56) 
-9.852814

>  <comRMSD>  (56) 
0.645424

>  <N_rotatable_bonds>  (56) 
6

>  <N_unconstrained_atoms>  (56) 
1

>  <N_constrained_atoms>  (56) 
18

>  <price>  (56) 
0

$$$$
Z2068571135
     RDKit          3D

 14 15  0  0  0  0  0  0  0  0999 V2000
   12.1570   14.8920   21.7080 C   0  0  0  0  0  0  0  0  0  0  0  0
   11.5870   13.6340   22.1290 N   0  0  0  0  0  0  0  0  0  0  0  0
   10.1810   13.7490   23.0660 S   0  0  0  0  0  6  0  0  0  0  0  0
   10.4820   14.4850   24.2690 O   0  0  0  0  0  0  0  0  0  0  0  0
    9.0950   14.1140   22.1740 O   0  0  0  0  0  0  0  0  0  0  0  0
    9.7580   12.1680   23.6280 C   0  0  0  0  0  0  0  0  0  0  0  0
   10.3930   10.9870   23.2610 C   0  0  0  0  0  0  0  0  0  0  0  0
    9.7590    9.5840   23.9580 S   0  0  0  0  0  0  0  0  0  0  0  0
    8.5920   10.5420   24.8030 C   0  0  0  0  0  0  0  0  0  0  0  0
    7.5510   10.0880   25.7250 C   0  0  0  0  0  0  0  0  0  0  0  0
    6.5750   11.0390   26.4070 C   0  0  0  0  0  0  0  0  0  0  0  0
    6.7610   12.3610   26.0830 C   0  0  0  0  0  0  0  0  0  0  0  0
    7.7730   12.7780   25.1880 C   0  0  0  0  0  0  0  0  0  0  0  0
    8.6900   11.9110   24.5450 C   0  0  0  0  0  0  0  0  0  0  0  0
  1  2  1  0
  2  3  1  0
  3  4  2  0
  3  5  2  0
  3  6  1  0
  6  7  2  0
  7  8  1  0
  8  9  1  0
  9 10  2  0
 10 11  1  0
 11 12  2  0
 12 13  1  0
 13 14  2  0
 14  6  1  0
 14  9  1  0
A    1
 C1 
A    2
 N1 
A    3
 S1 
A    4
 O1 
A    5
 O2 
A    6
 C2 
A    7
 C3 
A    8
 S2 
A    9
 C4 
A   10
 C5 
A   11
 C6 
A   12
 C7 
A   13
 C8 
A   14
 C9 
M  END
>  <ref_pdb>  (57) 
x0554_0A

>  <ref_mols>  (57) 
x0451_0A,x0566_0A

>  <original SMILES>  (57) 
CNS(=O)(=O)c1csc2ccccc12

>  <rationale>  (57) 
info cluster #6 (rank 6); hbond:H21; 

>  <cluster_rank>  (57) 
6

>  <N_interactions>  (57) 
1

>  <N_interactions_lost>  (57) 
0

>  <∆∆G>  (57) 
-8.45552

>  <comRMSD>  (57) 
0.930748

>  <N_rotatable_bonds>  (57) 
3

>  <N_unconstrained_atoms>  (57) 
0

>  <N_constrained_atoms>  (57) 
15

>  <price>  (57) 
0

$$$$
Z2697249468
     RDKit          3D

 15 16  0  0  0  0  0  0  0  0999 V2000
   11.0730   14.6730   20.3320 C   0  0  0  0  0  0  0  0  0  0  0  0
   10.1990   15.2240   21.4750 C   0  0  0  0  0  0  0  0  0  0  0  0
    9.3590   16.2840   20.9280 C   0  0  0  0  0  0  0  0  0  0  0  0
    9.4260   14.1530   22.1690 N   0  0  0  0  0  0  0  0  0  0  0  0
   10.1630   13.2320   22.9090 C   0  0  0  0  0  0  0  0  0  0  0  0
   11.3720   13.3620   22.9980 O   0  0  0  0  0  0  0  0  0  0  0  0
    9.5580   12.0430   23.6070 C   0  0  0  0  0  0  0  0  0  0  0  0
   10.0910   10.7840   23.3060 C   0  0  0  0  0  0  0  0  0  0  0  0
    9.6270    9.4830   23.9090 C   0  0  0  0  0  0  0  0  0  0  0  0
    8.5060    9.6770   24.9010 C   0  0  0  0  0  0  0  0  0  0  0  0
    7.9930   10.9130   25.1820 C   0  0  0  0  0  0  0  0  0  0  0  0
    8.4840   12.1010   24.5660 C   0  0  0  0  0  0  0  0  0  0  0  0
    7.7930   13.1870   25.0390 N   0  0  0  0  0  0  0  0  0  0  0  0
    6.8300   12.9080   25.9490 C   0  0  0  0  0  0  0  0  0  0  0  0
    6.7050   11.2510   26.2990 S   0  0  0  0  0  0  0  0  0  0  0  0
  1  2  1  0
  2  3  1  0
  2  4  1  0
  4  5  1  0
  5  6  2  0
  5  7  1  0
  7  8  2  0
  8  9  1  0
  9 10  2  0
 10 11  1  0
 11 12  2  0
 12 13  1  0
 13 14  2  0
 14 15  1  0
 12  7  1  0
 15 11  1  0
A    1
 C1 
A    2
 C2 
A    3
 C3 
A    4
 N1 
A    5
 C4 
A    6
 O1 
A    7
 C5 
A    8
 C6 
A    9
 C7 
A   10
 C8 
A   11
 C9 
A   12
 C10
A   13
 N2 
A   14
 C11
A   15
 S1 
M  END
>  <ref_pdb>  (58) 
x0554_0A

>  <ref_mols>  (58) 
x0566_0A

>  <original SMILES>  (58) 
CC(C)NC(=O)c1cccc2scnc12

>  <rationale>  (58) 
info cluster #1 (rank 6); hbond:T126; hydroph_interaction:V84; 

>  <cluster_rank>  (58) 
6

>  <N_interactions>  (58) 
2

>  <N_interactions_lost>  (58) 
0

>  <∆∆G>  (58) 
-7.343775

>  <comRMSD>  (58) 
0.571319

>  <N_rotatable_bonds>  (58) 
4

>  <N_unconstrained_atoms>  (58) 
0

>  <N_constrained_atoms>  (58) 
16

>  <price>  (58) 
0

$$$$
PV_003676037752
     RDKit          3D

 18 19  0  0  0  0  0  0  0  0999 V2000
   10.7630   14.9190   19.2550 C   0  0  0  0  0  0  0  0  0  0  0  0
   10.6790   15.5500   20.6170 C   0  0  0  0  0  0  0  0  0  0  0  0
   10.2170   16.6830   20.8070 O   0  0  0  0  0  0  0  0  0  0  0  0
   11.1840   14.7520   21.6050 N   0  0  0  0  0  0  0  0  0  0  0  0
   12.4070   15.1740   22.2260 C   0  0  0  0  0  0  0  0  0  0  0  0
   10.1310   14.1360   22.3750 C   0  0  0  0  0  0  0  0  0  0  0  0
    8.9500   14.3780   22.0960 O   0  0  0  0  0  0  0  0  0  0  0  0
   10.5220   13.2920   23.3890 N   0  0  0  0  0  0  0  0  0  0  0  0
    9.8800   12.1030   23.6920 C   0  0  0  0  0  0  0  0  0  0  0  0
   10.1720   10.7080   23.1630 C   0  0  0  0  0  0  0  0  0  0  0  0
    9.2630    9.8810   23.7420 N   0  0  0  0  0  0  0  0  0  0  0  0
    9.1940    8.4630   23.4920 C   0  0  0  0  0  0  0  0  0  0  0  0
    8.4240   10.5750   24.5930 C   0  0  0  0  0  0  0  0  0  0  0  0
    7.2980   10.0900   25.4390 C   0  0  0  0  0  0  0  0  0  0  0  0
    6.5850   10.9110   26.2030 C   0  0  0  0  0  0  0  0  0  0  0  0
    6.8700   12.2650   26.2420 C   0  0  0  0  0  0  0  0  0  0  0  0
    8.0310   12.8120   25.3850 C   0  0  0  0  0  0  0  0  0  0  0  0
    8.7750   11.9400   24.5820 C   0  0  0  0  0  0  0  0  0  0  0  0
  1  2  1  0
  2  3  2  0
  2  4  1  0
  4  5  1  0
  4  6  1  0
  6  7  2  0
  6  8  1  0
  8  9  1  0
  9 10  2  0
 10 11  1  0
 11 12  1  0
 11 13  1  0
 13 14  2  0
 14 15  1  0
 15 16  2  0
 16 17  1  0
 17 18  2  0
 18  9  1  0
 18 13  1  0
A    1
 C1 
A    2
 C2 
A    3
 O1 
A    4
 N1 
A    5
 C3 
A    6
 C4 
A    7
 O2 
A    8
 N2 
A    9
 C5 
A   10
 C6 
A   11
 N3 
A   12
 C7 
A   13
 C8 
A   14
 C9 
A   15
 C10
A   16
 C11
A   17
 C12
A   18
 C13
M  END
>  <ref_pdb>  (59) 
x0554_0A

>  <ref_mols>  (59) 
x0451_0A

>  <original SMILES>  (59) 
CC(=O)N(C)C(=O)Nc1cn(C)c2ccccc12

>  <rationale>  (59) 
info cluster #3 (rank 6); hbond:S87; 

>  <cluster_rank>  (59) 
6

>  <N_interactions>  (59) 
1

>  <N_interactions_lost>  (59) 
1

>  <∆∆G>  (59) 
-12.254322

>  <comRMSD>  (59) 
0.665196

>  <N_rotatable_bonds>  (59) 
4

>  <N_unconstrained_atoms>  (59) 
2

>  <N_constrained_atoms>  (59) 
17

>  <price>  (59) 
0

$$$$
Z3514568780
     RDKit          3D

 14 14  0  0  0  0  0  0  0  0999 V2000
   11.2340   14.6760   20.0160 C   0  0  0  0  0  0  0  0  0  0  0  0
   10.2320   15.1320   20.9420 O   0  0  0  0  0  0  0  0  0  0  0  0
   10.6430   15.1540   22.2510 C   0  0  0  0  0  0  0  0  0  0  0  0
   11.0760   16.1170   22.8400 O   0  0  0  0  0  0  0  0  0  0  0  0
   10.4700   13.8190   22.8970 C   0  0  0  0  0  0  0  0  0  0  0  0
    9.2220   13.6740   23.5540 O   0  0  0  0  0  0  0  0  0  0  0  0
    8.9270   12.4320   24.0140 C   0  0  0  0  0  0  0  0  0  0  0  0
    9.5970   11.2960   23.5820 C   0  0  0  0  0  0  0  0  0  0  0  0
    9.2610   10.0500   24.0840 C   0  0  0  0  0  0  0  0  0  0  0  0
    9.9350    8.9140   23.6410 C   0  0  0  0  0  0  0  0  0  0  0  0
    8.2430    9.9990   25.0290 C   0  0  0  0  0  0  0  0  0  0  0  0
    7.5590   11.0630   25.4810 N   0  0  0  0  0  0  0  0  0  0  0  0
    7.9130   12.2580   24.9640 C   0  0  0  0  0  0  0  0  0  0  0  0
    6.9850   13.5630   25.6020 Cl  0  0  0  0  0  0  0  0  0  0  0  0
  1  2  1  0
  2  3  1  0
  3  4  2  0
  3  5  1  0
  5  6  1  0
  6  7  1  0
  7  8  2  0
  8  9  1  0
  9 10  1  0
  9 11  2  0
 11 12  1  0
 12 13  2  0
 13 14  1  0
 13  7  1  0
A    1
 C1 
A    2
 O1 
A    3
 C2 
A    4
 O2 
A    5
 C3 
A    6
 O3 
A    7
 C4 
A    8
 C5 
A    9
 C6 
A   10
 C7 
A   11
 C8 
A   12
 N1 
A   13
 C9 
A   14
CL1 
M  END
>  <ref_pdb>  (60) 
x0554_0A

>  <ref_mols>  (60) 
x0416_0A

>  <original SMILES>  (60) 
COC(=O)COc1cc(C)cnc1Cl

>  <rationale>  (60) 
info cluster #4 (rank 6); hbond:S87; hydroph_interaction:D109+V124; saltbridge:H21; 

>  <cluster_rank>  (60) 
6

>  <N_interactions>  (60) 
4

>  <N_interactions_lost>  (60) 
1

>  <∆∆G>  (60) 
-7.403406

>  <comRMSD>  (60) 
0.549025

>  <N_rotatable_bonds>  (60) 
5

>  <N_unconstrained_atoms>  (60) 
2

>  <N_constrained_atoms>  (60) 
12

>  <price>  (60) 
0

$$$$
Z198194342
     RDKit          3D

 12 12  0  0  0  0  0  0  0  0999 V2000
   11.7640   13.3530   22.9970 C   0  0  0  0  0  0  0  0  0  0  0  0
   10.2630   13.5130   23.1590 C   0  0  1  0  0  0  0  0  0  0  0  0
    9.7890   13.8580   21.9060 N   0  0  0  0  0  0  0  0  0  0  0  0
   10.2500   15.0330   21.1560 C   0  0  0  0  0  0  0  0  0  0  0  0
    9.6810   16.2310   21.5470 N   0  0  0  0  0  0  0  0  0  0  0  0
   11.0530   14.9960   20.2300 O   0  0  0  0  0  0  0  0  0  0  0  0
    9.6630   12.3200   23.7100 C   0  0  0  0  0  0  0  0  0  0  0  0
   10.1890   10.9260   23.3450 C   0  0  0  0  0  0  0  0  0  0  0  0
    9.5780    9.7170   23.9360 C   0  0  0  0  0  0  0  0  0  0  0  0
    8.4320    9.9210   24.9010 C   0  0  0  0  0  0  0  0  0  0  0  0
    8.0040   11.2230   25.1730 C   0  0  0  0  0  0  0  0  0  0  0  0
    8.5790   12.3530   24.6160 C   0  0  0  0  0  0  0  0  0  0  0  0
  2  1  1  6
  2  3  1  0
  3  4  1  0
  4  5  1  0
  4  6  2  0
  2  7  1  0
  7  8  2  0
  8  9  1  0
  9 10  2  0
 10 11  1  0
 11 12  2  0
 12  7  1  0
A    1
 C1 
A    2
 C2 
A    3
 N1 
A    4
 C3 
A    5
 N2 
A    6
 O1 
A    7
 C4 
A    8
 C5 
A    9
 C6 
A   10
 C7 
A   11
 C8 
A   12
 C9 
M  END
>  <ref_pdb>  (61) 
x0554_0A

>  <ref_mols>  (61) 
x0566_0A

>  <original SMILES>  (61) 
CC(NC(N)=O)c1ccccc1

>  <rationale>  (61) 
info cluster #9 (rank 6); hbond:S87+T126; 

>  <cluster_rank>  (61) 
6

>  <N_interactions>  (61) 
3

>  <N_interactions_lost>  (61) 
1

>  <∆∆G>  (61) 
-4.372943

>  <comRMSD>  (61) 
0.863029

>  <N_rotatable_bonds>  (61) 
3

>  <N_unconstrained_atoms>  (61) 
0

>  <N_constrained_atoms>  (61) 
13

>  <price>  (61) 
0

$$$$
Z2252118358
     RDKit          3D

 14 15  0  0  0  0  0  0  0  0999 V2000
   11.9250   14.6050   21.7050 C   0  0  0  0  0  0  0  0  0  0  0  0
   11.0440   13.5840   22.0560 N   0  0  0  0  0  0  0  0  0  0  0  0
   10.6710   13.4890   23.4490 C   0  0  0  0  0  0  0  0  0  0  0  0
   11.0510   14.2350   24.3470 O   0  0  0  0  0  0  0  0  0  0  0  0
    9.6900   12.4120   23.9500 C   0  0  0  0  0  0  0  0  0  0  0  0
    8.5380   13.0250   24.7440 C   0  0  0  0  0  0  0  0  0  0  0  0
    7.5070   12.1520   25.3420 C   0  0  0  0  0  0  0  0  0  0  0  0
    7.6710   10.6770   25.1030 C   0  0  0  0  0  0  0  0  0  0  0  0
    6.6150    9.8460   25.7580 C   0  0  0  0  0  0  0  0  0  0  0  0
    8.7160   10.1620   24.3580 C   0  0  0  0  0  0  0  0  0  0  0  0
    9.7030   11.0030   23.8100 C   0  0  0  0  0  0  0  0  0  0  0  0
   10.7160   10.2220   23.1280 C   0  0  0  0  0  0  0  0  0  0  0  0
   10.4710    8.8740   23.5810 C   0  0  0  0  0  0  0  0  0  0  0  0
    9.0130    8.7150   24.0020 C   0  0  0  0  0  0  0  0  0  0  0  0
  1  2  1  0
  2  3  1  0
  3  4  2  0
  3  5  1  0
  5  6  2  0
  6  7  1  0
  7  8  2  0
  8  9  1  0
  8 10  1  0
 10 11  2  0
 11 12  1  0
 12 13  1  0
 13 14  1  0
 11  5  1  0
 14 10  1  0
A    1
 C1 
A    2
 N1 
A    3
 C2 
A    4
 O1 
A    5
 C3 
A    6
 C4 
A    7
 C5 
A    8
 C6 
A    9
 C7 
A   10
 C8 
A   11
 C9 
A   12
 C10
A   13
 C11
A   14
 C12
M  END
>  <ref_pdb>  (62) 
x0554_0A

>  <ref_mols>  (62) 
x0451_0A,x0554_0A

>  <original SMILES>  (62) 
CNC(=O)c1ccc(C)c2c1CCC2

>  <rationale>  (62) 
info cluster #8 (rank 7); hbond:S125; hydroph_interaction:A110+D109+V124; 

>  <cluster_rank>  (62) 
7

>  <N_interactions>  (62) 
4

>  <N_interactions_lost>  (62) 
1

>  <∆∆G>  (62) 
-7.590174

>  <comRMSD>  (62) 
0.964951

>  <N_rotatable_bonds>  (62) 
3

>  <N_unconstrained_atoms>  (62) 
3

>  <N_constrained_atoms>  (62) 
13

>  <price>  (62) 
0

$$$$
Z1391757995
     RDKit          3D

 14 15  0  0  0  0  0  0  0  0999 V2000
   11.9450   14.3730   22.5550 C   0  0  0  0  0  0  0  0  0  0  0  0
   11.1320   13.5760   23.5690 C   0  0  0  0  0  0  0  0  0  0  0  0
   11.1160   13.8880   24.7510 O   0  0  0  0  0  0  0  0  0  0  0  0
   10.4770   12.5320   22.9630 N   0  0  0  0  0  0  0  0  0  0  0  0
    9.8580   11.3670   23.4840 C   0  0  0  0  0  0  0  0  0  0  0  0
   10.2880    9.9700   23.0640 C   0  0  0  0  0  0  0  0  0  0  0  0
    9.5650    8.9090   23.6530 C   0  0  0  0  0  0  0  0  0  0  0  0
    8.5560    9.0470   24.5300 C   0  0  0  0  0  0  0  0  0  0  0  0
    8.1440   10.3130   24.9240 C   0  0  0  0  0  0  0  0  0  0  0  0
    6.9870   10.2980   25.9070 C   0  0  0  0  0  0  0  0  0  0  0  0
    6.5290   11.5430   26.3410 C   0  0  0  0  0  0  0  0  0  0  0  0
    7.1440   12.7030   25.8620 N   0  0  0  0  0  0  0  0  0  0  0  0
    8.1970   12.6440   24.9590 C   0  0  0  0  0  0  0  0  0  0  0  0
    8.7670   11.4950   24.4300 C   0  0  0  0  0  0  0  0  0  0  0  0
  1  2  1  0
  2  3  2  0
  2  4  1  0
  4  5  1  0
  5  6  2  0
  6  7  1  0
  7  8  2  0
  8  9  1  0
  9 10  2  0
 10 11  1  0
 11 12  2  0
 12 13  1  0
 13 14  2  0
 14  5  1  0
 14  9  1  0
A    1
 C1 
A    2
 C2 
A    3
 O1 
A    4
 N1 
A    5
 C3 
A    6
 C4 
A    7
 C5 
A    8
 C6 
A    9
 C7 
A   10
 C8 
A   11
 C9 
A   12
 N2 
A   13
 C10
A   14
 C11
M  END
>  <ref_pdb>  (63) 
x0554_0A

>  <ref_mols>  (63) 
x0554_0A,x0451_0A

>  <original SMILES>  (63) 
CC(=O)Nc1cccc2ccncc12

>  <rationale>  (63) 
info cluster #5 (rank 7); hbond:S125; hydroph_interaction:Y89+D109; 

>  <cluster_rank>  (63) 
7

>  <N_interactions>  (63) 
3

>  <N_interactions_lost>  (63) 
1

>  <∆∆G>  (63) 
-7.844573

>  <comRMSD>  (63) 
0.803662

>  <N_rotatable_bonds>  (63) 
2

>  <N_unconstrained_atoms>  (63) 
0

>  <N_constrained_atoms>  (63) 
16

>  <price>  (63) 
0

$$$$
Z3247547473
     RDKit          3D

 12 12  0  0  0  0  0  0  0  0999 V2000
   11.8600   14.1890   22.3840 C   0  0  0  0  0  0  0  0  0  0  0  0
   11.1230   13.4380   23.4930 C   0  0  0  0  0  0  0  0  0  0  0  0
   11.0770   13.8980   24.6290 O   0  0  0  0  0  0  0  0  0  0  0  0
   10.5580   12.2520   23.0510 N   0  0  0  0  0  0  0  0  0  0  0  0
    9.6030   11.4190   23.7200 C   0  0  0  0  0  0  0  0  0  0  0  0
    9.6470    9.9520   23.7140 C   0  0  0  0  0  0  0  0  0  0  0  0
   10.7170    9.1910   23.0010 C   0  0  0  0  0  0  0  0  0  0  0  0
    8.6850    9.1840   24.3880 C   0  0  0  0  0  0  0  0  0  0  0  0
    7.5700    9.8370   25.1450 C   0  0  0  0  0  0  0  0  0  0  0  0
    7.6000   11.2280   25.0960 C   0  0  0  0  0  0  0  0  0  0  0  0
    8.5410   12.0140   24.4340 C   0  0  0  0  0  0  0  0  0  0  0  0
    8.2990   13.8940   24.5500 Br  0  0  0  0  0  0  0  0  0  0  0  0
  1  2  1  0
  2  3  2  0
  2  4  1  0
  4  5  1  0
  5  6  2  0
  6  7  1  0
  6  8  1  0
  8  9  2  0
  9 10  1  0
 10 11  2  0
 11 12  1  0
 11  5  1  0
A    1
 C1 
A    2
 C2 
A    3
 O1 
A    4
 N1 
A    5
 C3 
A    6
 C4 
A    7
 C5 
A    8
 C6 
A    9
 C7 
A   10
 C8 
A   11
 C9 
A   12
BR1 
M  END
>  <ref_pdb>  (64) 
x0554_0A

>  <ref_mols>  (64) 
x0554_0A,x0310_0A

>  <original SMILES>  (64) 
CC(=O)Nc1c(C)cccc1Br

>  <rationale>  (64) 
info cluster #0 (rank 7); hbond:S125; hydroph_interaction:A110+V124; 

>  <cluster_rank>  (64) 
7

>  <N_interactions>  (64) 
3

>  <N_interactions_lost>  (64) 
1

>  <∆∆G>  (64) 
-8.239668

>  <comRMSD>  (64) 
0.713084

>  <N_rotatable_bonds>  (64) 
3

>  <N_unconstrained_atoms>  (64) 
1

>  <N_constrained_atoms>  (64) 
13

>  <price>  (64) 
0

$$$$
Z3495010709
     RDKit          3D

 17 18  0  0  0  0  0  0  0  0999 V2000
   12.4640   15.4910   21.6020 C   0  0  0  0  0  0  0  0  0  0  0  0
   11.4250   14.4750   21.2320 C   0  0  1  0  0  0  0  0  0  0  0  0
   11.3380   13.4980   22.2150 N   0  0  0  0  0  0  0  0  0  0  0  0
   10.5430   13.4550   23.3940 C   0  0  0  0  0  0  0  0  0  0  0  0
    9.8530   12.2050   23.7330 C   0  0  0  0  0  0  0  0  0  0  0  0
   10.2160   10.8350   23.1870 C   0  0  0  0  0  0  0  0  0  0  0  0
    9.3350    9.9610   23.7420 N   0  0  0  0  0  0  0  0  0  0  0  0
    9.3220    8.5410   23.4810 C   0  0  0  0  0  0  0  0  0  0  0  0
    8.4540   10.6040   24.5890 C   0  0  0  0  0  0  0  0  0  0  0  0
    7.3190   10.0400   25.4270 C   0  0  0  0  0  0  0  0  0  0  0  0
    6.5390   11.0320   26.2460 C   0  0  0  0  0  0  0  0  0  0  0  0
    6.9090   12.3590   26.1820 C   0  0  0  0  0  0  0  0  0  0  0  0
    7.9690   12.8460   25.3990 C   0  0  0  0  0  0  0  0  0  0  0  0
    8.7420   11.9850   24.6050 C   0  0  0  0  0  0  0  0  0  0  0  0
   10.0440   15.1530   21.0550 C   0  0  0  0  0  0  0  0  0  0  0  0
   10.0380   16.3880   20.4700 N   0  0  0  0  0  0  0  0  0  0  0  0
    8.9880   14.6540   21.4080 O   0  0  0  0  0  0  0  0  0  0  0  0
  2  1  1  1
  2  3  1  0
  3  4  1  0
  4  5  1  0
  5  6  2  0
  6  7  1  0
  7  8  1  0
  7  9  1  0
  9 10  2  0
 10 11  1  0
 11 12  2  0
 12 13  1  0
 13 14  2  0
  2 15  1  0
 15 16  1  0
 15 17  2  0
 14  5  1  0
 14  9  1  0
A    1
 C1 
A    2
 C2 
A    3
 N1 
A    4
 C3 
A    5
 C4 
A    6
 C5 
A    7
 N2 
A    8
 C6 
A    9
 C7 
A   10
 C8 
A   11
 C9 
A   12
 C10
A   13
 C11
A   14
 C12
A   15
 C13
A   16
 N3 
A   17
 O1 
M  END
>  <ref_pdb>  (65) 
x0554_0A

>  <ref_mols>  (65) 
x0451_0A

>  <original SMILES>  (65) 
CC(NCc1cn(C)c2ccccc12)C(N)=O

>  <rationale>  (65) 
info cluster #2 (rank 7); hbond:H21+S87; hydroph_interaction:Y89+Y90; 

>  <cluster_rank>  (65) 
7

>  <N_interactions>  (65) 
4

>  <N_interactions_lost>  (65) 
1

>  <∆∆G>  (65) 
-9.333291

>  <comRMSD>  (65) 
0.903448

>  <N_rotatable_bonds>  (65) 
6

>  <N_unconstrained_atoms>  (65) 
1

>  <N_constrained_atoms>  (65) 
18

>  <price>  (65) 
0

$$$$
Z3324908471
     RDKit          3D

 15 15  0  0  0  0  0  0  0  0999 V2000
   10.6840   15.3410   18.4160 C   0  0  0  0  0  0  0  0  0  0  0  0
   10.9990   14.9510   19.8590 C   0  0  0  0  0  0  0  0  0  0  0  0
    9.9690   15.4760   20.8730 C   0  0  2  0  0  0  0  0  0  0  0  0
    9.7950   16.8500   20.7730 N   0  0  0  0  0  0  0  0  0  0  0  0
   10.3650   15.1390   22.3240 C   0  0  0  0  0  0  0  0  0  0  0  0
   10.9520   15.9150   23.0580 O   0  0  0  0  0  0  0  0  0  0  0  0
    9.9640   13.9020   22.7320 N   0  0  0  0  0  0  0  0  0  0  0  0
    8.8640   13.7940   23.6510 C   0  0  0  0  0  0  0  0  0  0  0  0
    8.6970   12.4900   24.0880 C   0  0  0  0  0  0  0  0  0  0  0  0
    7.7180   12.1760   25.0170 C   0  0  0  0  0  0  0  0  0  0  0  0
    7.5030   10.9340   25.4830 N   0  0  0  0  0  0  0  0  0  0  0  0
    8.2990    9.9630   24.9910 C   0  0  0  0  0  0  0  0  0  0  0  0
    9.3040   10.1560   24.0550 C   0  0  0  0  0  0  0  0  0  0  0  0
   10.1470    9.0330   23.5410 C   0  0  0  0  0  0  0  0  0  0  0  0
    9.4990   11.4520   23.6080 C   0  0  0  0  0  0  0  0  0  0  0  0
  1  2  1  0
  2  3  1  0
  3  4  1  1
  3  5  1  0
  5  6  2  0
  5  7  1  0
  7  8  1  0
  8  9  1  0
  9 10  2  0
 10 11  1  0
 11 12  2  0
 12 13  1  0
 13 14  1  0
 13 15  2  0
 15  9  1  0
A    1
 C1 
A    2
 C2 
A    3
 C3 
A    4
 N1 
A    5
 C4 
A    6
 O1 
A    7
 N2 
A    8
 C5 
A    9
 C6 
A   10
 C7 
A   11
 N3 
A   12
 C8 
A   13
 C9 
A   14
 C10
A   15
 C11
M  END
>  <ref_pdb>  (66) 
x0554_0A

>  <ref_mols>  (66) 
x0416_0A

>  <original SMILES>  (66) 
CCC(N)C(=O)NCc1cncc(C)c1

>  <rationale>  (66) 
info cluster #7 (rank 7); hbond:S87+S125; hydroph_interaction:Y90+D109+V124; 

>  <cluster_rank>  (66) 
7

>  <N_interactions>  (66) 
6

>  <N_interactions_lost>  (66) 
1

>  <∆∆G>  (66) 
-8.722077

>  <comRMSD>  (66) 
0.469736

>  <N_rotatable_bonds>  (66) 
7

>  <N_unconstrained_atoms>  (66) 
3

>  <N_constrained_atoms>  (66) 
12

>  <price>  (66) 
0

$$$$
PV_002801198191
     RDKit          3D

 16 18  0  0  0  0  0  0  0  0999 V2000
    9.1340   13.8630   22.7950 C   0  0  0  0  0  0  0  0  0  0  0  0
   10.5330   13.5140   23.1070 C   0  0  0  0  0  0  0  0  0  0  0  0
   11.4410   14.4090   22.7060 N   0  0  0  0  0  0  0  0  0  0  0  0
   12.6960   14.1200   23.0110 C   0  0  0  0  0  0  0  0  0  0  0  0
   13.1180   12.9970   23.7030 C   0  0  0  0  0  0  0  0  0  0  0  0
   12.1780   12.0930   24.0820 C   0  0  0  0  0  0  0  0  0  0  0  0
   10.8460   12.3390   23.7770 C   0  0  0  0  0  0  0  0  0  0  0  0
    9.8490   11.3890   24.1730 C   0  0  0  0  0  0  0  0  0  0  0  0
    9.9560   10.0110   23.9220 C   0  0  0  0  0  0  0  0  0  0  0  0
    8.9600    9.1440   24.3450 C   0  0  0  0  0  0  0  0  0  0  0  0
    7.8480    9.6420   25.0250 C   0  0  0  0  0  0  0  0  0  0  0  0
    7.7220   10.9960   25.2720 C   0  0  0  0  0  0  0  0  0  0  0  0
    8.7180   11.8460   24.8430 C   0  0  0  0  0  0  0  0  0  0  0  0
    8.3510   13.1180   25.2100 N   0  0  0  0  0  0  0  0  0  0  0  0
    7.1490   13.0900   25.8600 C   0  0  0  0  0  0  0  0  0  0  0  0
    6.7390   11.7810   25.9130 C   0  0  0  0  0  0  0  0  0  0  0  0
  1  2  1  0
  2  3  2  0
  3  4  1  0
  4  5  2  0
  5  6  1  0
  6  7  2  0
  7  8  1  0
  8  9  2  0
  9 10  1  0
 10 11  2  0
 11 12  1  0
 12 13  2  0
 13 14  1  0
 14 15  1  0
 15 16  2  0
  7  2  1  0
 13  8  1  0
 16 12  1  0
A    1
 C1 
A    2
 C2 
A    3
 N1 
A    4
 C3 
A    5
 C4 
A    6
 C5 
A    7
 C6 
A    8
 C7 
A    9
 C8 
A   10
 C9 
A   11
 C10
A   12
 C11
A   13
 C12
A   14
 N2 
A   15
 C13
A   16
 C14
M  END
>  <ref_pdb>  (67) 
x0554_0A

>  <ref_mols>  (67) 
x0554_0A

>  <original SMILES>  (67) 
Cc1ncccc1-c1cccc2cc[nH]c12

>  <rationale>  (67) 
info cluster #6 (rank 7); hydroph_interaction:Y89+A110; 

>  <cluster_rank>  (67) 
7

>  <N_interactions>  (67) 
2

>  <N_interactions_lost>  (67) 
0

>  <∆∆G>  (67) 
-6.001957

>  <comRMSD>  (67) 
0.991401

>  <N_rotatable_bonds>  (67) 
2

>  <N_unconstrained_atoms>  (67) 
1

>  <N_constrained_atoms>  (67) 
16

>  <price>  (67) 
0

$$$$
PV_002382496674
     RDKit          3D

 16 17  0  0  0  0  0  0  0  0999 V2000
   11.5590   13.2340   22.8060 C   0  0  0  0  0  0  0  0  0  0  0  0
   10.1460   13.2490   23.0640 N   0  0  0  0  0  0  0  0  0  0  0  0
    9.2970   14.1000   22.3590 C   0  0  0  0  0  0  0  0  0  0  0  0
    8.0930   14.1640   22.5490 O   0  0  0  0  0  0  0  0  0  0  0  0
    9.8860   14.8800   21.3980 C   0  0  0  0  0  0  0  0  0  0  0  0
    9.6430   16.2160   21.3760 N   0  0  0  0  0  0  0  0  0  0  0  0
   10.6090   14.4070   20.5340 O   0  0  0  0  0  0  0  0  0  0  0  0
    9.6060   12.0600   23.6430 C   0  0  0  0  0  0  0  0  0  0  0  0
   10.1350   10.7790   23.3040 C   0  0  0  0  0  0  0  0  0  0  0  0
    9.6060    9.6330   23.8880 C   0  0  0  0  0  0  0  0  0  0  0  0
    8.5850    9.7280   24.7840 C   0  0  0  0  0  0  0  0  0  0  0  0
    8.0420   10.9430   25.1320 C   0  0  0  0  0  0  0  0  0  0  0  0
    8.5240   12.1160   24.5880 C   0  0  0  0  0  0  0  0  0  0  0  0
    7.8580   13.1730   25.0690 N   0  0  0  0  0  0  0  0  0  0  0  0
    6.9010   12.7220   25.9550 C   0  0  0  0  0  0  0  0  0  0  0  0
    6.9940   11.3300   26.0120 C   0  0  0  0  0  0  0  0  0  0  0  0
  1  2  1  0
  2  3  1  0
  3  4  2  0
  3  5  1  0
  5  6  1  0
  5  7  2  0
  2  8  1  0
  8  9  2  0
  9 10  1  0
 10 11  2  0
 11 12  1  0
 12 13  2  0
 13 14  1  0
 14 15  1  0
 15 16  2  0
 13  8  1  0
 16 12  1  0
A    1
 C1 
A    2
 N1 
A    3
 C2 
A    4
 O1 
A    5
 C3 
A    6
 N2 
A    7
 O2 
A    8
 C4 
A    9
 C5 
A   10
 C6 
A   11
 C7 
A   12
 C8 
A   13
 C9 
A   14
 N3 
A   15
 C10
A   16
 C11
M  END
>  <ref_pdb>  (68) 
x0554_0A

>  <ref_mols>  (68) 
x0566_0A

>  <original SMILES>  (68) 
CN(C(=O)C(N)=O)c1cccc2cc[nH]c12

>  <rationale>  (68) 
info cluster #3 (rank 7); hbond:S87+G127; 

>  <cluster_rank>  (68) 
7

>  <N_interactions>  (68) 
3

>  <N_interactions_lost>  (68) 
1

>  <∆∆G>  (68) 
-4.396139

>  <comRMSD>  (68) 
0.799262

>  <N_rotatable_bonds>  (68) 
2

>  <N_unconstrained_atoms>  (68) 
1

>  <N_constrained_atoms>  (68) 
17

>  <price>  (68) 
0

$$$$
Z3177378502
     RDKit          3D

 13 13  0  0  0  0  0  0  0  0999 V2000
   12.0930   14.9500   21.6140 C   0  0  0  0  0  0  0  0  0  0  0  0
   11.0560   14.0460   22.0330 N   0  0  0  0  0  0  0  0  0  0  0  0
   10.5210   14.1500   23.3030 C   0  0  0  0  0  0  0  0  0  0  0  0
   11.1500   14.5950   24.2490 O   0  0  0  0  0  0  0  0  0  0  0  0
    9.2350   13.7050   23.3610 N   0  0  0  0  0  0  0  0  0  0  0  0
    8.8840   12.4480   23.9330 C   0  0  0  0  0  0  0  0  0  0  0  0
    9.5300   11.2670   23.5770 C   0  0  0  0  0  0  0  0  0  0  0  0
    9.1990    9.9650   24.1380 C   0  0  0  0  0  0  0  0  0  0  0  0
    9.8740    8.8270   23.7290 C   0  0  0  0  0  0  0  0  0  0  0  0
    8.1840    9.9900   25.0810 C   0  0  0  0  0  0  0  0  0  0  0  0
    7.5210   11.1260   25.4600 N   0  0  0  0  0  0  0  0  0  0  0  0
    7.8290   12.3340   24.9250 C   0  0  0  0  0  0  0  0  0  0  0  0
    7.1390   13.4180   25.3380 F   0  0  0  0  0  0  0  0  0  0  0  0
  1  2  1  0
  2  3  1  0
  3  4  2  0
  3  5  1  0
  5  6  1  0
  6  7  2  0
  7  8  1  0
  8  9  1  0
  8 10  2  0
 10 11  1  0
 11 12  2  0
 12 13  1  0
 12  6  1  0
A    1
 C1 
A    2
 N1 
A    3
 C2 
A    4
 O1 
A    5
 N2 
A    6
 C3 
A    7
 C4 
A    8
 C5 
A    9
 C6 
A   10
 C7 
A   11
 N3 
A   12
 C8 
A   13
 F1 
M  END
>  <ref_pdb>  (69) 
x0554_0A

>  <ref_mols>  (69) 
x0416_0A,x0451_0A

>  <original SMILES>  (69) 
CNC(=O)Nc1cc(C)cnc1F

>  <rationale>  (69) 
info cluster #1 (rank 7); hbond:S125+T126; hydroph_interaction:D109; 

>  <cluster_rank>  (69) 
7

>  <N_interactions>  (69) 
3

>  <N_interactions_lost>  (69) 
1

>  <∆∆G>  (69) 
-6.340541

>  <comRMSD>  (69) 
0.626007

>  <N_rotatable_bonds>  (69) 
3

>  <N_unconstrained_atoms>  (69) 
1

>  <N_constrained_atoms>  (69) 
14

>  <price>  (69) 
0

$$$$
PV_005194014768
     RDKit          3D

 18 20  0  0  0  0  0  0  0  0999 V2000
   12.2670   15.5800   21.5890 C   0  0  0  0  0  0  0  0  0  0  0  0
   11.2390   14.7040   22.0670 N   0  0  0  0  0  0  0  0  0  0  0  0
    9.9750   14.8400   21.6850 C   0  0  0  0  0  0  0  0  0  0  0  0
    9.1330   13.8580   22.2670 N   0  0  0  0  0  0  0  0  0  0  0  0
   10.0100   13.1050   23.0270 C   0  0  0  0  0  0  0  0  0  0  0  0
    9.4910   11.9920   23.7080 C   0  0  0  0  0  0  0  0  0  0  0  0
   10.0540   10.6440   23.4170 C   0  0  0  0  0  0  0  0  0  0  0  0
    9.5310    9.5390   24.0740 C   0  0  0  0  0  0  0  0  0  0  0  0
    8.4970    9.6900   24.9910 C   0  0  0  0  0  0  0  0  0  0  0  0
    7.9430   10.9390   25.2890 C   0  0  0  0  0  0  0  0  0  0  0  0
    8.4460   12.0680   24.6480 C   0  0  0  0  0  0  0  0  0  0  0  0
    7.7100   13.1600   25.1370 N   0  0  0  0  0  0  0  0  0  0  0  0
    6.7850   12.7310   26.0500 C   0  0  0  0  0  0  0  0  0  0  0  0
    6.9040   11.3640   26.1640 C   0  0  0  0  0  0  0  0  0  0  0  0
   11.3360   13.6070   22.9650 C   0  0  0  0  0  0  0  0  0  0  0  0
   12.5260   13.1200   23.6520 C   0  0  0  0  0  0  0  0  0  0  0  0
   12.9390   13.4960   24.7210 O   0  0  0  0  0  0  0  0  0  0  0  0
   13.2170   12.1300   23.0730 O   0  0  0  0  0  0  0  0  0  0  0  0
  1  2  1  0
  2  3  1  0
  3  4  2  0
  4  5  1  0
  5  6  1  0
  6  7  2  0
  7  8  1  0
  8  9  2  0
  9 10  1  0
 10 11  2  0
 11 12  1  0
 12 13  1  0
 13 14  2  0
  5 15  2  0
 15 16  1  0
 16 17  2  0
 16 18  1  0
 15  2  1  0
 11  6  1  0
 14 10  1  0
A    1
 C1 
A    2
 N1 
A    3
 C2 
A    4
 N2 
A    5
 C3 
A    6
 C4 
A    7
 C5 
A    8
 C6 
A    9
 C7 
A   10
 C8 
A   11
 C9 
A   12
 N3 
A   13
 C10
A   14
 C11
A   15
 C12
A   16
 C13
A   17
 O1 
A   18
 O2 
M  END
>  <ref_pdb>  (70) 
x0554_0A

>  <ref_mols>  (70) 
x0566_0A

>  <original SMILES>  (70) 
Cn1cnc(-c2cccc3cc[nH]c23)c1C(=O)O

>  <rationale>  (70) 
info cluster #4 (rank 7); saltbridge:H21; 

>  <cluster_rank>  (70) 
7

>  <N_interactions>  (70) 
1

>  <N_interactions_lost>  (70) 
0

>  <∆∆G>  (70) 
-7.41917

>  <comRMSD>  (70) 
0.952124

>  <N_rotatable_bonds>  (70) 
3

>  <N_unconstrained_atoms>  (70) 
2

>  <N_constrained_atoms>  (70) 
18

>  <price>  (70) 
0

$$$$
Z5102731374
     RDKit          3D

 14 14  0  0  0  0  0  0  0  0999 V2000
   11.1980   14.6720   19.8470 C   0  0  0  0  0  0  0  0  0  0  0  0
   10.1060   15.4360   20.5960 C   0  0  0  0  0  0  0  0  0  0  0  0
   10.1710   15.1470   22.0890 C   0  0  0  0  0  0  0  0  0  0  0  0
   10.8370   15.8110   22.8780 O   0  0  0  0  0  0  0  0  0  0  0  0
    9.3780   14.0860   22.4640 N   0  0  0  0  0  0  0  0  0  0  0  0
    9.0100   13.9350   23.8680 C   0  0  0  0  0  0  0  0  0  0  0  0
    8.7900   12.6030   24.2090 C   0  0  0  0  0  0  0  0  0  0  0  0
    9.5660   11.5870   23.6360 C   0  0  0  0  0  0  0  0  0  0  0  0
    9.3600   10.2450   23.9710 C   0  0  0  0  0  0  0  0  0  0  0  0
   10.1750    9.1820   23.3610 C   0  0  0  0  0  0  0  0  0  0  0  0
    8.3730    9.9490   24.8920 C   0  0  0  0  0  0  0  0  0  0  0  0
    7.5680   10.8640   25.4980 N   0  0  0  0  0  0  0  0  0  0  0  0
    7.8070   12.2410   25.1210 C   0  0  0  0  0  0  0  0  0  0  0  0
    6.6950   13.5260   25.9530 Br  0  0  0  0  0  0  0  0  0  0  0  0
  1  2  1  0
  2  3  1  0
  3  4  2  0
  3  5  1  0
  5  6  1  0
  6  7  1  0
  7  8  2  0
  8  9  1  0
  9 10  1  0
  9 11  2  0
 11 12  1  0
 12 13  2  0
 13 14  1  0
 13  7  1  0
A    1
 C1 
A    2
 C2 
A    3
 C3 
A    4
 O1 
A    5
 N1 
A    6
 C4 
A    7
 C5 
A    8
 C6 
A    9
 C7 
A   10
 C8 
A   11
 C9 
A   12
 N2 
A   13
 C10
A   14
BR1 
M  END
>  <ref_pdb>  (71) 
x0554_0A

>  <ref_mols>  (71) 
x0416_0A

>  <original SMILES>  (71) 
CCC(=O)NCc1cc(C)cnc1Br

>  <rationale>  (71) 
info cluster #9 (rank 7); hbond:S87+T126; hydroph_interaction:V124; 

>  <cluster_rank>  (71) 
7

>  <N_interactions>  (71) 
3

>  <N_interactions_lost>  (71) 
1

>  <∆∆G>  (71) 
-7.738528

>  <comRMSD>  (71) 
0.54426

>  <N_rotatable_bonds>  (71) 
5

>  <N_unconstrained_atoms>  (71) 
2

>  <N_constrained_atoms>  (71) 
13

>  <price>  (71) 
0

$$$$
Z1022691278
     RDKit          3D

 13 14  0  0  0  0  0  0  0  0999 V2000
    9.7060    8.4390   23.4120 C   0  0  0  0  0  0  0  0  0  0  0  0
    9.2350    9.7530   23.9540 C   0  0  0  0  0  0  0  0  0  0  0  0
    8.2460    9.8400   25.1050 C   0  0  0  0  0  0  0  0  0  0  0  0
    7.9660   11.2560   25.3580 C   0  0  0  0  0  0  0  0  0  0  0  0
    7.0110   11.6790   26.4180 C   0  0  0  0  0  0  0  0  0  0  0  0
    7.0500   13.0300   26.3090 N   0  0  0  0  0  0  0  0  0  0  0  0
    7.8940   13.4850   25.3310 N   0  0  0  0  0  0  0  0  0  0  0  0
    8.4900   12.3900   24.7090 C   0  0  0  0  0  0  0  0  0  0  0  0
    9.4010   12.2540   23.6800 C   0  0  0  0  0  0  0  0  0  0  0  0
    9.9740   13.4710   22.9660 C   0  0  0  0  0  0  0  0  0  0  0  0
    9.0490   14.3380   22.4430 N   0  0  0  0  0  0  0  0  0  0  0  0
   11.1700   13.6730   22.8440 O   0  0  0  0  0  0  0  0  0  0  0  0
    9.7540   10.9200   23.3290 C   0  0  0  0  0  0  0  0  0  0  0  0
  1  2  1  0
  2  3  2  0
  3  4  1  0
  4  5  2  0
  5  6  1  0
  6  7  1  0
  7  8  2  0
  8  9  1  0
  9 10  1  0
 10 11  1  0
 10 12  2  0
  9 13  2  0
 13  2  1  0
  8  4  1  0
A    1
 C1 
A    2
 C2 
A    3
 C3 
A    4
 C4 
A    5
 C5 
A    6
 N1 
A    7
 N2 
A    8
 C6 
A    9
 C7 
A   10
 C8 
A   11
 N3 
A   12
 O1 
A   13
 C9 
M  END
>  <ref_pdb>  (72) 
x0554_0A

>  <ref_mols>  (72) 
x0566_0A,x0451_0A

>  <original SMILES>  (72) 
Cc1cc(C(N)=O)c2n[nH]cc2c1

>  <rationale>  (72) 
info cluster #8 (rank 8); hbond:T126; hydroph_interaction:D109+V124; 

>  <cluster_rank>  (72) 
8

>  <N_interactions>  (72) 
3

>  <N_interactions_lost>  (72) 
0

>  <∆∆G>  (72) 
-5.189756

>  <comRMSD>  (72) 
0.680272

>  <N_rotatable_bonds>  (72) 
2

>  <N_unconstrained_atoms>  (72) 
0

>  <N_constrained_atoms>  (72) 
14

>  <price>  (72) 
0

$$$$
Z2087500821
     RDKit          3D

 15 16  0  0  0  0  0  0  0  0999 V2000
   11.9110   14.4090   22.4830 C   0  0  0  0  0  0  0  0  0  0  0  0
   11.1320   13.5860   23.5380 C   0  0  0  0  0  0  0  0  0  0  0  0
   11.1320   13.9030   24.7180 O   0  0  0  0  0  0  0  0  0  0  0  0
   10.4910   12.5220   22.9460 N   0  0  0  0  0  0  0  0  0  0  0  0
    9.8210   11.3950   23.4970 C   0  0  0  0  0  0  0  0  0  0  0  0
   10.2250    9.9750   23.0880 C   0  0  0  0  0  0  0  0  0  0  0  0
    9.5940    8.8620   23.5860 C   0  0  0  0  0  0  0  0  0  0  0  0
    8.5890    9.0530   24.4630 C   0  0  0  0  0  0  0  0  0  0  0  0
    8.1440   10.2770   24.8930 C   0  0  0  0  0  0  0  0  0  0  0  0
    6.9930   10.2260   25.8730 C   0  0  0  0  0  0  0  0  0  0  0  0
    6.4140   11.5460   26.4240 C   0  0  0  0  0  0  0  0  0  0  0  0
    4.9940   11.7150   27.6490 Br  0  0  0  0  0  0  0  0  0  0  0  0
    7.1650   12.5970   25.8300 C   0  0  0  0  0  0  0  0  0  0  0  0
    8.2280   12.5960   24.9190 N   0  0  0  0  0  0  0  0  0  0  0  0
    8.7170   11.4620   24.4520 C   0  0  0  0  0  0  0  0  0  0  0  0
  1  2  1  0
  2  3  2  0
  2  4  1  0
  4  5  1  0
  5  6  2  0
  6  7  1  0
  7  8  2  0
  8  9  1  0
  9 10  2  0
 10 11  1  0
 11 12  1  0
 11 13  2  0
 13 14  1  0
 14 15  2  0
 15  5  1  0
 15  9  1  0
A    1
 C1 
A    2
 C2 
A    3
 O1 
A    4
 N1 
A    5
 C3 
A    6
 C4 
A    7
 C5 
A    8
 C6 
A    9
 C7 
A   10
 C8 
A   11
 C9 
A   12
BR1 
A   13
 C10
A   14
 N2 
A   15
 C11
M  END
>  <ref_pdb>  (73) 
x0554_0A

>  <ref_mols>  (73) 
x0554_0A,x0451_0A

>  <original SMILES>  (73) 
CC(=O)Nc1cccc2cc(Br)cnc12

>  <rationale>  (73) 
info cluster #5 (rank 8); hbond:S125; hydroph_interaction:Y89+D109; 

>  <cluster_rank>  (73) 
8

>  <N_interactions>  (73) 
3

>  <N_interactions_lost>  (73) 
1

>  <∆∆G>  (73) 
-8.274498

>  <comRMSD>  (73) 
0.79327

>  <N_rotatable_bonds>  (73) 
2

>  <N_unconstrained_atoms>  (73) 
1

>  <N_constrained_atoms>  (73) 
16

>  <price>  (73) 
0

$$$$
Z5293336576
     RDKit          3D

 16 17  0  0  0  0  0  0  0  0999 V2000
   10.7600   14.6680   19.8430 N   0  0  0  0  0  0  0  0  0  0  0  0
   10.5040   15.4120   20.9580 C   0  0  0  0  0  0  0  0  0  0  0  0
   10.0940   16.7760   20.9360 O   0  0  0  0  0  0  0  0  0  0  0  0
   10.6880   14.6830   22.2790 C   0  0  0  0  0  0  0  0  0  0  0  0
   10.7690   15.5250   23.3400 O   0  0  0  0  0  0  0  0  0  0  0  0
   10.7400   13.3120   22.2630 N   0  0  0  0  0  0  0  0  0  0  0  0
   11.0930   12.5980   23.4530 C   0  0  0  0  0  0  0  0  0  0  0  0
   10.0490   11.5460   23.8600 C   0  0  0  0  0  0  0  0  0  0  0  0
   10.2540   10.0790   23.4040 C   0  0  0  0  0  0  0  0  0  0  0  0
    9.3020    9.1710   23.8200 C   0  0  0  0  0  0  0  0  0  0  0  0
    8.1920    9.6570   24.6430 C   0  0  0  0  0  0  0  0  0  0  0  0
    7.9770   10.9480   25.0480 C   0  0  0  0  0  0  0  0  0  0  0  0
    8.9200   11.9200   24.6510 C   0  0  0  0  0  0  0  0  0  0  0  0
    8.5290   13.1510   25.1560 N   0  0  0  0  0  0  0  0  0  0  0  0
    7.3130   12.9770   25.8930 C   0  0  0  0  0  0  0  0  0  0  0  0
    6.9650   11.5730   25.8240 C   0  0  0  0  0  0  0  0  0  0  0  0
  1  2  1  0
  2  3  2  0
  2  4  1  0
  4  5  2  0
  4  6  1  0
  6  7  1  0
  7  8  1  0
  8  9  2  0
  9 10  1  0
 10 11  2  0
 11 12  1  0
 12 13  2  0
 13 14  1  0
 14 15  1  0
 15 16  2  0
 13  8  1  0
 16 12  1  0
A    1
 N1 
A    2
 C1 
A    3
 O1 
A    4
 C2 
A    5
 O2 
A    6
 N2 
A    7
 C3 
A    8
 C4 
A    9
 C5 
A   10
 C6 
A   11
 C7 
A   12
 C8 
A   13
 C9 
A   14
 N3 
A   15
 C10
A   16
 C11
M  END
>  <ref_pdb>  (74) 
x0554_0A

>  <ref_mols>  (74) 
x0554_0A

>  <original SMILES>  (74) 
NC(=O)C(=O)NCc1cccc2cc[nH]c12

>  <rationale>  (74) 
info cluster #0 (rank 8); hbond:S87+S125; 

>  <cluster_rank>  (74) 
8

>  <N_interactions>  (74) 
3

>  <N_interactions_lost>  (74) 
1

>  <∆∆G>  (74) 
-6.98619

>  <comRMSD>  (74) 
0.418835

>  <N_rotatable_bonds>  (74) 
2

>  <N_unconstrained_atoms>  (74) 
2

>  <N_constrained_atoms>  (74) 
14

>  <price>  (74) 
0

$$$$
Z1389119304
     RDKit          3D

 18 18  0  0  0  0  0  0  0  0999 V2000
    9.9200   16.6830   20.6570 C   0  0  0  0  0  0  0  0  0  0  0  0
   10.1600   15.1830   20.7620 C   0  0  0  0  0  0  0  0  0  0  0  0
   11.0570   14.8280   19.7710 C   0  0  0  0  0  0  0  0  0  0  0  0
   10.8410   14.8970   22.0930 C   0  0  0  0  0  0  0  0  0  0  0  0
   11.0030   15.7710   22.9490 O   0  0  0  0  0  0  0  0  0  0  0  0
   11.2980   13.5160   22.2970 N   0  0  0  0  0  0  0  0  0  0  0  0
   10.7870   12.8930   23.3650 N   0  0  0  0  0  0  0  0  0  0  0  0
    9.4780   12.7600   23.3610 C   0  0  0  0  0  0  0  0  0  0  0  0
    8.8190   13.6000   22.7290 O   0  0  0  0  0  0  0  0  0  0  0  0
    8.7960   11.6440   24.0830 C   0  0  0  0  0  0  0  0  0  0  0  0
    7.6660   12.0190   24.9780 C   0  0  0  0  0  0  0  0  0  0  0  0
    7.1540   10.7500   25.5800 C   0  0  0  0  0  0  0  0  0  0  0  0
    5.9700   10.9120   26.5470 C   0  0  0  0  0  0  0  0  0  0  0  0
    5.2180    9.8750   27.0060 N   0  0  0  0  0  0  0  0  0  0  0  0
    5.7290   12.2100   26.8920 O   0  0  0  0  0  0  0  0  0  0  0  0
    7.9520    9.7310   25.0520 C   0  0  0  0  0  0  0  0  0  0  0  0
    8.9170   10.2550   24.1700 N   0  0  0  0  0  0  0  0  0  0  0  0
    9.8860    9.4220   23.4680 C   0  0  0  0  0  0  0  0  0  0  0  0
  1  2  1  0
  2  3  1  0
  2  4  1  0
  4  5  2  0
  4  6  1  0
  6  7  1  0
  7  8  1  0
  8  9  2  0
  8 10  1  0
 10 11  2  0
 11 12  1  0
 12 13  1  0
 13 14  1  0
 13 15  2  0
 12 16  2  0
 16 17  1  0
 17 18  1  0
 17 10  1  0
A    1
 C1 
A    2
 C2 
A    3
 C3 
A    4
 C4 
A    5
 O1 
A    6
 N1 
A    7
 N2 
A    8
 C5 
A    9
 O2 
A   10
 C6 
A   11
 C7 
A   12
 C8 
A   13
 C9 
A   14
 N3 
A   15
 O3 
A   16
 C10
A   17
 N4 
A   18
 C11
M  END
>  <ref_pdb>  (75) 
x0554_0A

>  <ref_mols>  (75) 
x0556_0A

>  <original SMILES>  (75) 
CC(C)C(=O)NNC(=O)c1cc(C(N)=O)cn1C

>  <rationale>  (75) 
info cluster #2 (rank 8); hbond:H21+S87+S105+G127; hydroph_interaction:Y90; 

>  <cluster_rank>  (75) 
8

>  <N_interactions>  (75) 
5

>  <N_interactions_lost>  (75) 
2

>  <∆∆G>  (75) 
-10.369884

>  <comRMSD>  (75) 
0.448623

>  <N_rotatable_bonds>  (75) 
6

>  <N_unconstrained_atoms>  (75) 
3

>  <N_constrained_atoms>  (75) 
16

>  <price>  (75) 
163

$$$$
PV_002929090681
     RDKit          3D

 16 16  0  0  0  0  0  0  0  0999 V2000
   10.2220    8.7680   23.1810 C   0  0  0  0  0  0  0  0  0  0  0  0
    9.3930    9.8870   23.7450 C   0  0  0  0  0  0  0  0  0  0  0  0
    8.3840    9.6480   24.5740 N   0  0  0  0  0  0  0  0  0  0  0  0
    7.8910   10.8690   24.8560 N   0  0  0  0  0  0  0  0  0  0  0  0
    6.7640   10.9580   25.7570 C   0  0  0  0  0  0  0  0  0  0  0  0
    8.5740   11.8870   24.2040 C   0  0  0  0  0  0  0  0  0  0  0  0
    8.2800   13.3990   24.2740 C   0  0  0  0  0  0  0  0  0  0  0  0
    8.5630   13.9750   22.9480 N   0  0  0  0  0  0  0  0  0  0  0  0
    9.7020   14.7170   22.6270 C   0  0  0  0  0  0  0  0  0  0  0  0
   10.6290   14.9390   23.3930 O   0  0  0  0  0  0  0  0  0  0  0  0
    9.6300   15.2040   21.3270 N   0  0  0  0  0  0  0  0  0  0  0  0
   10.6500   14.9750   20.3020 C   0  0  0  0  0  0  0  0  0  0  0  0
   10.3540   15.5810   19.0880 C   0  0  2  0  0  0  0  0  0  0  0  0
   11.4550   15.3760   18.2290 C   0  0  0  0  0  0  0  0  0  0  0  0
   10.1070   17.0230   19.2300 N   0  0  0  0  0  0  0  0  0  0  0  0
    9.5560   11.2510   23.4930 C   0  0  0  0  0  0  0  0  0  0  0  0
  1  2  1  0
  2  3  2  0
  3  4  1  0
  4  5  1  0
  4  6  1  0
  6  7  1  0
  7  8  1  0
  8  9  1  0
  9 10  2  0
  9 11  1  0
 11 12  1  0
 12 13  1  0
 13 14  1  6
 13 15  1  0
  6 16  2  0
 16  2  1  0
A    1
 C1 
A    2
 C2 
A    3
 N1 
A    4
 N2 
A    5
 C3 
A    6
 C4 
A    7
 C5 
A    8
 N3 
A    9
 C6 
A   10
 O1 
A   11
 N4 
A   12
 C7 
A   13
 C8 
A   14
 C9 
A   15
 N5 
A   16
 C10
M  END
>  <ref_pdb>  (76) 
x0554_0A

>  <ref_mols>  (76) 
x0310_0A

>  <original SMILES>  (76) 
Cc1cc(CNC(=O)NCC(C)N)n(C)n1

>  <rationale>  (76) 
info cluster #7 (rank 8); hbond:S87+T126; hydroph_interaction:Y90+D109+V124+D39; 

>  <cluster_rank>  (76) 
8

>  <N_interactions>  (76) 
6

>  <N_interactions_lost>  (76) 
1

>  <∆∆G>  (76) 
-9.003345

>  <comRMSD>  (76) 
0.582077

>  <N_rotatable_bonds>  (76) 
8

>  <N_unconstrained_atoms>  (76) 
4

>  <N_constrained_atoms>  (76) 
13

>  <price>  (76) 
0

$$$$
PV_002134983030
     RDKit          3D

 17 19  0  0  0  0  0  0  0  0999 V2000
    4.2250   17.9510   25.3760 C   0  0  0  0  0  0  0  0  0  0  0  0
    4.8430   16.5650   25.4640 C   0  0  0  0  0  0  0  0  0  0  0  0
    5.9390   16.2530   24.5800 C   0  0  0  0  0  0  0  0  0  0  0  0
    6.5630   15.1040   25.1810 O   0  0  0  0  0  0  0  0  0  0  0  0
    5.7420   14.6160   26.2650 N   0  0  0  0  0  0  0  0  0  0  0  0
    5.6750   13.1490   26.2940 C   0  0  0  0  0  0  0  0  0  0  0  0
    4.7560   12.5090   26.8080 O   0  0  0  0  0  0  0  0  0  0  0  0
    6.7500   12.4230   25.6680 C   0  0  0  0  0  0  0  0  0  0  0  0
    7.0250   10.9850   25.7230 C   0  0  0  0  0  0  0  0  0  0  0  0
    8.1370   10.6800   24.9690 C   0  0  0  0  0  0  0  0  0  0  0  0
    8.8080    9.3760   24.6980 C   0  0  0  0  0  0  0  0  0  0  0  0
   10.0190    9.4620   23.7900 C   0  0  0  0  0  0  0  0  0  0  0  0
   10.4280   10.8280   23.2680 C   0  0  0  0  0  0  0  0  0  0  0  0
    9.7860   12.0630   23.5390 C   0  0  0  0  0  0  0  0  0  0  0  0
    8.5860   11.8390   24.4490 C   0  0  0  0  0  0  0  0  0  0  0  0
    7.7160   12.9720   24.8860 N   0  0  0  0  0  0  0  0  0  0  0  0
    4.5270   15.4100   26.3270 C   0  0  0  0  0  0  0  0  0  0  0  0
  1  2  2  0
  2  3  1  0
  3  4  1  0
  4  5  1  0
  5  6  1  0
  6  7  2  0
  6  8  1  0
  8  9  2  0
  9 10  1  0
 10 11  2  0
 11 12  1  0
 12 13  2  0
 13 14  1  0
 14 15  2  0
 15 16  1  0
  5 17  1  0
 17  2  1  0
 16  8  1  0
 15 10  1  0
A    1
 C1 
A    2
 C2 
A    3
 C3 
A    4
 O1 
A    5
 N1 
A    6
 C4 
A    7
 O2 
A    8
 C5 
A    9
 C6 
A   10
 C7 
A   11
 C8 
A   12
 C9 
A   13
 C10
A   14
 C11
A   15
 C12
A   16
 N2 
A   17
 C13
M  END
>  <ref_pdb>  (77) 
x0554_0A

>  <ref_mols>  (77) 
x0554_0A,x0416_0A

>  <original SMILES>  (77) 
C=C1CON(C(=O)c2cc3ccccc3[nH]2)C1

>  <rationale>  (77) 
info cluster #6 (rank 8); hydroph_interaction:E85; 

>  <cluster_rank>  (77) 
8

>  <N_interactions>  (77) 
1

>  <N_interactions_lost>  (77) 
0

>  <∆∆G>  (77) 
-4.273912

>  <comRMSD>  (77) 
0.987742

>  <N_rotatable_bonds>  (77) 
1

>  <N_unconstrained_atoms>  (77) 
5

>  <N_constrained_atoms>  (77) 
14

>  <price>  (77) 
0

$$$$
Z2488809575
     RDKit          3D

 16 17  0  0  0  0  0  0  0  0999 V2000
   10.9910   14.8750   19.7480 C   0  0  0  0  0  0  0  0  0  0  0  0
   10.1190   15.3740   20.8870 C   0  0  2  0  0  0  0  0  0  0  0  0
    9.9600   16.7550   20.8760 N   0  0  0  0  0  0  0  0  0  0  0  0
   10.6210   14.8520   22.2110 C   0  0  0  0  0  0  0  0  0  0  0  0
   10.9300   15.5900   23.1460 O   0  0  0  0  0  0  0  0  0  0  0  0
   10.6970   13.4660   22.2610 N   0  0  0  0  0  0  0  0  0  0  0  0
   10.8710   12.7680   23.4250 C   0  0  0  0  0  0  0  0  0  0  0  0
   10.0410   11.6930   23.7810 C   0  0  0  0  0  0  0  0  0  0  0  0
   10.2770   10.3810   23.3660 C   0  0  0  0  0  0  0  0  0  0  0  0
    9.3590    9.2660   23.8020 C   0  0  0  0  0  0  0  0  0  0  0  0
    8.2920    9.5970   24.6140 C   0  0  0  0  0  0  0  0  0  0  0  0
    8.0350   10.8910   25.0240 C   0  0  0  0  0  0  0  0  0  0  0  0
    8.9020   11.9140   24.6080 C   0  0  0  0  0  0  0  0  0  0  0  0
    8.3910   13.4360   25.2390 S   0  0  0  0  0  0  0  0  0  0  0  0
    7.0570   12.7640   26.0410 C   0  0  0  0  0  0  0  0  0  0  0  0
    6.9800   11.3900   25.8480 C   0  0  0  0  0  0  0  0  0  0  0  0
  2  1  1  6
  2  3  1  0
  2  4  1  0
  4  5  2  0
  4  6  1  0
  6  7  1  0
  7  8  1  0
  8  9  2  0
  9 10  1  0
 10 11  2  0
 11 12  1  0
 12 13  2  0
 13 14  1  0
 14 15  1  0
 15 16  2  0
 13  8  1  0
 16 12  1  0
A    1
 C1 
A    2
 C2 
A    3
 N1 
A    4
 C3 
A    5
 O1 
A    6
 N2 
A    7
 C4 
A    8
 C5 
A    9
 C6 
A   10
 C7 
A   11
 C8 
A   12
 C9 
A   13
 C10
A   14
 S1 
A   15
 C11
A   16
 C12
M  END
>  <ref_pdb>  (78) 
x0554_0A

>  <ref_mols>  (78) 
x0554_0A

>  <original SMILES>  (78) 
C[C@H](N)C(=O)NCc1cccc2ccsc12

>  <rationale>  (78) 
info cluster #3 (rank 8); hbond:S87+S125; 

>  <cluster_rank>  (78) 
8

>  <N_interactions>  (78) 
3

>  <N_interactions_lost>  (78) 
1

>  <∆∆G>  (78) 
-9.320698

>  <comRMSD>  (78) 
0.454668

>  <N_rotatable_bonds>  (78) 
5

>  <N_unconstrained_atoms>  (78) 
2

>  <N_constrained_atoms>  (78) 
14

>  <price>  (78) 
0

$$$$
Z1891774463
     RDKit          3D

 12 12  0  0  0  0  0  0  0  0999 V2000
   11.2230   14.5670   20.3020 C   0  0  0  0  0  0  0  0  0  0  0  0
   10.1870   14.5820   21.3210 N   0  0  0  0  0  0  0  0  0  0  0  0
   10.4470   14.2070   22.6420 C   0  0  0  0  0  0  0  0  0  0  0  0
   11.5300   14.4140   23.1540 O   0  0  0  0  0  0  0  0  0  0  0  0
    9.2800   13.6160   23.4080 C   0  0  1  0  0  0  0  0  0  0  0  0
    8.0550   14.0690   22.7450 N   0  0  0  0  0  0  0  0  0  0  0  0
    9.1880   12.2230   23.7690 C   0  0  0  0  0  0  0  0  0  0  0  0
   10.1060   11.1380   23.3240 C   0  0  0  0  0  0  0  0  0  0  0  0
    9.9470    9.7810   23.7130 C   0  0  0  0  0  0  0  0  0  0  0  0
    8.8150    9.4600   24.6060 C   0  0  0  0  0  0  0  0  0  0  0  0
    7.9760   10.4860   25.0130 C   0  0  0  0  0  0  0  0  0  0  0  0
    8.1290   11.8240   24.6260 C   0  0  0  0  0  0  0  0  0  0  0  0
  1  2  1  0
  2  3  1  0
  3  4  2  0
  3  5  1  0
  5  6  1  6
  5  7  1  0
  7  8  2  0
  8  9  1  0
  9 10  2  0
 10 11  1  0
 11 12  2  0
 12  7  1  0
A    1
 C1 
A    2
 N1 
A    3
 C2 
A    4
 O1 
A    5
 C3 
A    6
 N2 
A    7
 C4 
A    8
 C5 
A    9
 C6 
A   10
 C7 
A   11
 C8 
A   12
 C9 
M  END
>  <ref_pdb>  (79) 
x0554_0A

>  <ref_mols>  (79) 
x0566_0A

>  <original SMILES>  (79) 
CNC(=O)C(N)c1ccccc1

>  <rationale>  (79) 
info cluster #1 (rank 8); hbond:G127+T126; 

>  <cluster_rank>  (79) 
8

>  <N_interactions>  (79) 
3

>  <N_interactions_lost>  (79) 
0

>  <∆∆G>  (79) 
-5.283622

>  <comRMSD>  (79) 
0.880553

>  <N_rotatable_bonds>  (79) 
4

>  <N_unconstrained_atoms>  (79) 
0

>  <N_constrained_atoms>  (79) 
13

>  <price>  (79) 
0

$$$$
Z4875247928
     RDKit          3D

 15 16  0  0  0  0  0  0  0  0999 V2000
   12.0990   14.6710   21.9470 C   0  0  0  0  0  0  0  0  0  0  0  0
   10.7280   14.4290   22.2780 O   0  0  0  0  0  0  0  0  0  0  0  0
   10.4860   14.1460   23.5920 C   0  0  0  0  0  0  0  0  0  0  0  0
   10.6700   14.9280   24.5060 O   0  0  0  0  0  0  0  0  0  0  0  0
    9.9640   12.7550   23.7980 C   0  0  0  0  0  0  0  0  0  0  0  0
   10.6610   11.7620   23.1260 C   0  0  0  0  0  0  0  0  0  0  0  0
   10.0110   10.5310   23.4320 N   0  0  0  0  0  0  0  0  0  0  0  0
   10.3950    9.2310   22.9200 C   0  0  0  0  0  0  0  0  0  0  0  0
    8.9900   10.7920   24.2700 C   0  0  0  0  0  0  0  0  0  0  0  0
    8.1010    9.8100   24.8330 C   0  0  0  0  0  0  0  0  0  0  0  0
    8.5580    8.2490   24.2960 Cl  0  0  0  0  0  0  0  0  0  0  0  0
    7.0690   10.2350   25.6870 C   0  0  0  0  0  0  0  0  0  0  0  0
    6.9560   11.6120   25.9580 C   0  0  0  0  0  0  0  0  0  0  0  0
    7.8500   12.5500   25.3970 C   0  0  0  0  0  0  0  0  0  0  0  0
    8.8910   12.1420   24.5370 C   0  0  0  0  0  0  0  0  0  0  0  0
  1  2  1  0
  2  3  1  0
  3  4  2  0
  3  5  1  0
  5  6  2  0
  6  7  1  0
  7  8  1  0
  7  9  1  0
  9 10  2  0
 10 11  1  0
 10 12  1  0
 12 13  2  0
 13 14  1  0
 14 15  2  0
 15  5  1  0
 15  9  1  0
A    1
 C1 
A    2
 O1 
A    3
 C2 
A    4
 O2 
A    5
 C3 
A    6
 C4 
A    7
 N1 
A    8
 C5 
A    9
 C6 
A   10
 C7 
A   11
CL1 
A   12
 C8 
A   13
 C9 
A   14
 C10
A   15
 C11
M  END
>  <ref_pdb>  (80) 
x0554_0A

>  <ref_mols>  (80) 
x0451_0A,x0451_0A

>  <original SMILES>  (80) 
COC(=O)c1cn(C)c2c(Cl)cccc12

>  <rationale>  (80) 
info cluster #4 (rank 8); hbond:S87; saltbridge:H21; 

>  <cluster_rank>  (80) 
8

>  <N_interactions>  (80) 
2

>  <N_interactions_lost>  (80) 
0

>  <∆∆G>  (80) 
-5.903117

>  <comRMSD>  (80) 
0.815578

>  <N_rotatable_bonds>  (80) 
3

>  <N_unconstrained_atoms>  (80) 
1

>  <N_constrained_atoms>  (80) 
14

>  <price>  (80) 
0

$$$$
Z3365802281
     RDKit          3D

 14 14  0  0  0  0  0  0  0  0999 V2000
   11.0060   14.7780   19.7960 C   0  0  0  0  0  0  0  0  0  0  0  0
   10.8870   15.4850   21.1370 C   0  0  1  0  0  0  0  0  0  0  0  0
    9.9550   16.6210   21.0010 N   0  0  0  0  0  0  0  0  0  0  0  0
   10.4800   14.5180   22.2520 C   0  0  0  0  0  0  0  0  0  0  0  0
   11.3570   13.3390   22.3070 N   0  0  0  0  0  0  0  0  0  0  0  0
   11.6830   12.5890   23.7600 S   0  0  0  0  0  6  0  0  0  0  0  0
   11.7920   13.6360   24.7530 O   0  0  0  0  0  0  0  0  0  0  0  0
   12.7720   11.6770   23.5790 O   0  0  0  0  0  0  0  0  0  0  0  0
   10.2080   11.6650   24.1230 C   0  0  0  0  0  0  0  0  0  0  0  0
    9.0130   12.5110   24.4510 C   0  0  0  0  0  0  0  0  0  0  0  0
    7.7220   11.8670   24.8140 C   0  0  0  0  0  0  0  0  0  0  0  0
    7.6770   10.4820   24.8330 C   0  0  0  0  0  0  0  0  0  0  0  0
    8.8150    9.7120   24.5060 C   0  0  0  0  0  0  0  0  0  0  0  0
   10.0660   10.2520   24.1520 C   0  0  0  0  0  0  0  0  0  0  0  0
  2  1  1  6
  2  3  1  0
  2  4  1  0
  4  5  1  0
  5  6  1  0
  6  7  2  0
  6  8  2  0
  6  9  1  0
  9 10  2  0
 10 11  1  0
 11 12  2  0
 12 13  1  0
 13 14  2  0
 14  9  1  0
A    1
 C1 
A    2
 C2 
A    3
 N1 
A    4
 C3 
A    5
 N2 
A    6
 S1 
A    7
 O1 
A    8
 O2 
A    9
 C4 
A   10
 C5 
A   11
 C6 
A   12
 C7 
A   13
 C8 
A   14
 C9 
M  END
>  <ref_pdb>  (81) 
x0554_0A

>  <ref_mols>  (81) 
x0566_0A

>  <original SMILES>  (81) 
C[C@@H](N)CNS(=O)(=O)c1ccccc1

>  <rationale>  (81) 
info cluster #9 (rank 8); hbond:H21+S87; 

>  <cluster_rank>  (81) 
8

>  <N_interactions>  (81) 
3

>  <N_interactions_lost>  (81) 
1

>  <∆∆G>  (81) 
-8.076934

>  <comRMSD>  (81) 
0.992171

>  <N_rotatable_bonds>  (81) 
6

>  <N_unconstrained_atoms>  (81) 
3

>  <N_constrained_atoms>  (81) 
14

>  <price>  (81) 
163

$$$$
Z4990944741
     RDKit          3D

 14 14  0  0  0  0  0  0  0  0999 V2000
    9.3530   15.3190   21.5120 C   0  0  0  0  0  0  0  0  0  0  0  0
    8.8780   14.1980   22.2770 N   0  0  0  0  0  0  0  0  0  0  0  0
    9.8160   13.4540   22.9670 C   0  0  0  0  0  0  0  0  0  0  0  0
   11.0240   13.6790   22.9660 O   0  0  0  0  0  0  0  0  0  0  0  0
    9.2170   12.2750   23.7240 C   0  0  0  0  0  0  0  0  0  0  0  0
    9.9530   11.1200   23.3860 C   0  0  0  0  0  0  0  0  0  0  0  0
    9.4350    9.8970   24.0730 C   0  0  0  0  0  0  0  0  0  0  0  0
   10.1700    8.7650   23.7120 C   0  0  0  0  0  0  0  0  0  0  0  0
    8.3530    9.9300   24.9540 C   0  0  0  0  0  0  0  0  0  0  0  0
    7.6890   11.1300   25.2220 C   0  0  0  0  0  0  0  0  0  0  0  0
    6.4890   11.1280   26.1880 C   0  0  0  0  0  0  0  0  0  0  0  0
    6.0300    9.9070   26.5720 N   0  0  0  0  0  0  0  0  0  0  0  0
    5.9520   12.1570   26.5990 O   0  0  0  0  0  0  0  0  0  0  0  0
    8.1210   12.3150   24.6040 C   0  0  0  0  0  0  0  0  0  0  0  0
  1  2  1  0
  2  3  1  0
  3  4  2  0
  3  5  1  0
  5  6  2  0
  6  7  1  0
  7  8  1  0
  7  9  2  0
  9 10  1  0
 10 11  1  0
 11 12  1  0
 11 13  2  0
 10 14  2  0
 14  5  1  0
A    1
 C1 
A    2
 N1 
A    3
 C2 
A    4
 O1 
A    5
 C3 
A    6
 C4 
A    7
 C5 
A    8
 C6 
A    9
 C7 
A   10
 C8 
A   11
 C9 
A   12
 N2 
A   13
 O2 
A   14
 C10
M  END
>  <ref_pdb>  (82) 
x0554_0A

>  <ref_mols>  (82) 
x0566_0A,x0556_0A

>  <original SMILES>  (82) 
CNC(=O)c1cc(C)cc(C(N)=O)c1

>  <rationale>  (82) 
info cluster #8 (rank 9); hbond:S105+T126; hydroph_interaction:D109+V124; 

>  <cluster_rank>  (82) 
9

>  <N_interactions>  (82) 
4

>  <N_interactions_lost>  (82) 
1

>  <∆∆G>  (82) 
-7.693077

>  <comRMSD>  (82) 
0.592999

>  <N_rotatable_bonds>  (82) 
4

>  <N_unconstrained_atoms>  (82) 
1

>  <N_constrained_atoms>  (82) 
14

>  <price>  (82) 
0

$$$$
Z28487267
     RDKit          3D

 14 15  0  0  0  0  0  0  0  0999 V2000
   12.0590   14.2310   22.7560 C   0  0  0  0  0  0  0  0  0  0  0  0
   11.1300   13.4500   23.6150 C   0  0  0  0  0  0  0  0  0  0  0  0
   11.0670   13.6330   24.8190 O   0  0  0  0  0  0  0  0  0  0  0  0
   10.4000   12.5670   22.9410 N   0  0  0  0  0  0  0  0  0  0  0  0
    9.7870   11.4290   23.5100 C   0  0  0  0  0  0  0  0  0  0  0  0
   10.2340   10.2240   23.1340 C   0  0  0  0  0  0  0  0  0  0  0  0
    9.7020    8.8770   23.5920 C   0  0  0  0  0  0  0  0  0  0  0  0
    8.5660    9.0380   24.5600 C   0  0  0  0  0  0  0  0  0  0  0  0
    8.1460   10.3120   24.9130 C   0  0  0  0  0  0  0  0  0  0  0  0
    7.0160   10.3280   25.8680 C   0  0  0  0  0  0  0  0  0  0  0  0
    6.4620   11.4830   26.3360 C   0  0  0  0  0  0  0  0  0  0  0  0
    7.0670   12.6210   25.8270 C   0  0  0  0  0  0  0  0  0  0  0  0
    8.1780   12.6980   24.8840 N   0  0  0  0  0  0  0  0  0  0  0  0
    8.7040   11.5200   24.4380 C   0  0  0  0  0  0  0  0  0  0  0  0
  1  2  1  0
  2  3  2  0
  2  4  1  0
  4  5  1  0
  5  6  2  0
  6  7  1  0
  7  8  2  0
  8  9  1  0
  9 10  2  0
 10 11  1  0
 11 12  2  0
 12 13  1  0
 13 14  2  0
 14  5  1  0
 14  9  1  0
A    1
 C1 
A    2
 C2 
A    3
 O1 
A    4
 N1 
A    5
 C3 
A    6
 C4 
A    7
 C5 
A    8
 C6 
A    9
 C7 
A   10
 C8 
A   11
 C9 
A   12
 C10
A   13
 N2 
A   14
 C11
M  END
>  <ref_pdb>  (83) 
x0554_0A

>  <ref_mols>  (83) 
x0554_0A,x0451_0A

>  <original SMILES>  (83) 
CC(=O)Nc1cccc2cccnc12

>  <rationale>  (83) 
info cluster #5 (rank 9); hbond:S125; hydroph_interaction:Y89+D109; 

>  <cluster_rank>  (83) 
9

>  <N_interactions>  (83) 
3

>  <N_interactions_lost>  (83) 
1

>  <∆∆G>  (83) 
-7.633676

>  <comRMSD>  (83) 
0.777033

>  <N_rotatable_bonds>  (83) 
2

>  <N_unconstrained_atoms>  (83) 
0

>  <N_constrained_atoms>  (83) 
16

>  <price>  (83) 
0

$$$$
Z230747656
     RDKit          3D

 15 15  0  0  0  0  0  0  0  0999 V2000
   10.3530    9.3320   23.5130 C   0  0  0  0  0  0  0  0  0  0  0  0
    9.4490   10.3870   24.0700 C   0  0  0  0  0  0  0  0  0  0  0  0
    8.3600   10.0220   24.8660 C   0  0  0  0  0  0  0  0  0  0  0  0
    7.4720   10.9660   25.4110 C   0  0  0  0  0  0  0  0  0  0  0  0
    7.6720   12.3350   25.1600 C   0  0  0  0  0  0  0  0  0  0  0  0
    6.8890   13.4200   25.6250 N   0  0  0  0  0  0  0  0  0  0  0  0
    5.6460   13.4390   26.1940 C   0  0  0  0  0  0  0  0  0  0  0  0
    5.0310   12.2350   26.1220 N   0  0  0  0  0  0  0  0  0  0  0  0
    5.0670   14.3780   26.7180 O   0  0  0  0  0  0  0  0  0  0  0  0
    8.7600   12.6760   24.3740 C   0  0  0  0  0  0  0  0  0  0  0  0
    9.6540   11.7620   23.8210 C   0  0  0  0  0  0  0  0  0  0  0  0
   10.7340   12.2340   23.0440 N   0  0  0  0  0  0  0  0  0  0  0  0
   11.3310   13.4480   23.2170 C   0  0  0  0  0  0  0  0  0  0  0  0
   11.8720   13.9050   22.0540 N   0  0  0  0  0  0  0  0  0  0  0  0
   11.4110   14.1110   24.2410 O   0  0  0  0  0  0  0  0  0  0  0  0
  1  2  1  0
  2  3  2  0
  3  4  1  0
  4  5  2  0
  5  6  1  0
  6  7  1  0
  7  8  1  0
  7  9  2  0
  5 10  1  0
 10 11  2  0
 11 12  1  0
 12 13  1  0
 13 14  1  0
 13 15  2  0
 11  2  1  0
A    1
 C1 
A    2
 C2 
A    3
 C3 
A    4
 C4 
A    5
 C5 
A    6
 N1 
A    7
 C6 
A    8
 N2 
A    9
 O1 
A   10
 C7 
A   11
 C8 
A   12
 N3 
A   13
 C9 
A   14
 N4 
A   15
 O2 
M  END
>  <ref_pdb>  (84) 
x0554_0A

>  <ref_mols>  (84) 
x0416_0A,x0554_0A

>  <original SMILES>  (84) 
Cc1ccc(NC(N)=O)cc1NC(N)=O

>  <rationale>  (84) 
info cluster #0 (rank 9); hbond:S125+G127; 

>  <cluster_rank>  (84) 
9

>  <N_interactions>  (84) 
3

>  <N_interactions_lost>  (84) 
1

>  <∆∆G>  (84) 
-7.002412

>  <comRMSD>  (84) 
0.529178

>  <N_rotatable_bonds>  (84) 
3

>  <N_unconstrained_atoms>  (84) 
1

>  <N_constrained_atoms>  (84) 
14

>  <price>  (84) 
0

$$$$
Z3304213444
     RDKit          3D

 14 14  0  0  0  0  0  0  0  0999 V2000
    9.6740   16.5800   20.5930 C   0  0  0  0  0  0  0  0  0  0  0  0
   10.1900   15.1450   20.6150 C   0  0  0  0  0  0  0  0  0  0  0  0
   10.7020   14.8610   19.3650 C   0  0  0  0  0  0  0  0  0  0  0  0
   11.6150   15.1600   21.7660 S   0  0  0  0  0  4  0  0  0  0  0  0
   12.8480   15.4270   20.9790 O   0  0  0  0  0  0  0  0  0  0  0  0
   11.4220   13.5770   22.2380 N   0  0  0  0  0  0  0  0  0  0  0  0
   10.3810   13.3040   23.2130 C   0  0  0  0  0  0  0  0  0  0  0  0
   10.4710   12.0510   23.6620 C   0  0  0  0  0  0  0  0  0  0  0  0
    9.2990   11.3320   24.2340 C   0  0  0  0  0  0  0  0  0  0  0  0
    8.1970   12.1140   24.9440 C   0  0  0  0  0  0  0  0  0  0  0  0
    7.2890   10.9990   25.3360 C   0  0  0  0  0  0  0  0  0  0  0  0
    7.8230    9.7360   24.8890 N   0  0  0  0  0  0  0  0  0  0  0  0
    8.9950   10.0420   24.2550 N   0  0  0  0  0  0  0  0  0  0  0  0
    9.7780    8.9730   23.6810 C   0  0  0  0  0  0  0  0  0  0  0  0
  1  2  1  0
  2  3  1  0
  2  4  1  0
  4  5  2  0
  4  6  1  6
  6  7  1  0
  7  8  1  0
  8  9  1  0
  9 10  2  0
 10 11  1  0
 11 12  2  0
 12 13  1  0
 13 14  1  0
 13  9  1  0
A    1
 C1 
A    2
 C2 
A    3
 C3 
A    4
 S1 
A    5
 O1 
A    6
 N1 
A    7
 C4 
A    8
 C5 
A    9
 C6 
A   10
 C7 
A   11
 C8 
A   12
 N2 
A   13
 N3 
A   14
 C9 
M  END
>  <ref_pdb>  (85) 
x0554_0A

>  <ref_mols>  (85) 
x0556_0A

>  <original SMILES>  (85) 
CC(C)S(=O)NCCc1ccnn1C

>  <rationale>  (85) 
info cluster #2 (rank 9); hbond:H21; hydroph_interaction:Y90+V84; pication:H21; 

>  <cluster_rank>  (85) 
9

>  <N_interactions>  (85) 
4

>  <N_interactions_lost>  (85) 
0

>  <∆∆G>  (85) 
-8.654932

>  <comRMSD>  (85) 
0.654154

>  <N_rotatable_bonds>  (85) 
8

>  <N_unconstrained_atoms>  (85) 
3

>  <N_constrained_atoms>  (85) 
12

>  <price>  (85) 
0

$$$$
Z3700433595
     RDKit          3D

 15 15  0  0  0  0  0  0  0  0999 V2000
   10.0380    8.9250   23.5830 C   0  0  0  0  0  0  0  0  0  0  0  0
    9.2580   10.1390   24.0600 C   0  0  0  0  0  0  0  0  0  0  0  0
    8.1870    9.9460   25.0990 C   0  0  0  0  0  0  0  0  0  0  0  0
    7.4170   11.0670   25.5640 N   0  0  0  0  0  0  0  0  0  0  0  0
    7.6650   12.3260   25.0580 C   0  0  0  0  0  0  0  0  0  0  0  0
    6.9420   13.3720   25.4930 F   0  0  0  0  0  0  0  0  0  0  0  0
    8.6740   12.4710   24.1020 C   0  0  0  0  0  0  0  0  0  0  0  0
    8.8630   13.8830   23.6200 C   0  0  0  0  0  0  0  0  0  0  0  0
   10.0560   13.9600   22.7990 N   0  0  0  0  0  0  0  0  0  0  0  0
   10.4510   15.1630   22.3180 C   0  0  0  0  0  0  0  0  0  0  0  0
   10.9980   15.9920   23.0190 O   0  0  0  0  0  0  0  0  0  0  0  0
   10.1380   15.3370   20.9750 C   0  0  2  0  0  0  0  0  0  0  0  0
   11.0770   14.9140   19.8820 C   0  0  0  0  0  0  0  0  0  0  0  0
    9.9180   16.6940   20.7900 N   0  0  0  0  0  0  0  0  0  0  0  0
    9.4560   11.4160   23.6110 C   0  0  0  0  0  0  0  0  0  0  0  0
  1  2  1  0
  2  3  2  0
  3  4  1  0
  4  5  2  0
  5  6  1  0
  5  7  1  0
  7  8  1  0
  8  9  1  0
  9 10  1  0
 10 11  2  0
 10 12  1  0
 12 13  1  6
 12 14  1  0
  7 15  2  0
 15  2  1  0
A    1
 C1 
A    2
 C2 
A    3
 C3 
A    4
 N1 
A    5
 C4 
A    6
 F1 
A    7
 C5 
A    8
 C6 
A    9
 N2 
A   10
 C7 
A   11
 O1 
A   12
 C8 
A   13
 C9 
A   14
 N3 
A   15
 C10
M  END
>  <ref_pdb>  (86) 
x0554_0A

>  <ref_mols>  (86) 
x0416_0A

>  <original SMILES>  (86) 
Cc1cnc(F)c(CNC(=O)[C@H](C)N)c1

>  <rationale>  (86) 
info cluster #7 (rank 9); hbond:S87+S125; hydroph_interaction:Y90+D109+V124; 

>  <cluster_rank>  (86) 
9

>  <N_interactions>  (86) 
6

>  <N_interactions_lost>  (86) 
2

>  <∆∆G>  (86) 
-7.99928

>  <comRMSD>  (86) 
0.467525

>  <N_rotatable_bonds>  (86) 
6

>  <N_unconstrained_atoms>  (86) 
2

>  <N_constrained_atoms>  (86) 
13

>  <price>  (86) 
0

$$$$
Z4152892475
     RDKit          3D

 24 26  0  0  0  0  0  0  0  0999 V2000
   13.4130   11.5290   24.8430 C   0  0  0  0  0  0  0  0  0  0  0  0
   14.8990   11.4370   24.9880 C   0  0  0  0  0  0  0  0  0  0  0  0
   15.5290   12.0580   26.0620 C   0  0  0  0  0  0  0  0  0  0  0  0
   16.2600   13.0180   25.9330 O   0  0  0  0  0  0  0  0  0  0  0  0
   15.2110   11.4240   27.3160 N   0  0  0  0  0  0  0  0  0  0  0  0
   14.4370   12.2330   28.1910 C   0  0  0  0  0  0  0  0  0  0  0  0
   14.7040   12.0990   29.6340 C   0  0  0  0  0  0  0  0  0  0  0  0
   13.8430   13.0220   30.4910 C   0  0  0  0  0  0  0  0  0  0  0  0
   12.8130   13.9760   29.8010 C   0  0  0  0  0  0  0  0  0  0  0  0
   12.6850   13.9440   28.3720 C   0  0  0  0  0  0  0  0  0  0  0  0
   11.6620   14.8190   27.6140 C   0  0  0  0  0  0  0  0  0  0  0  0
   10.3280   14.1470   27.4630 N   0  0  0  0  0  0  0  0  0  0  0  0
    9.6370   14.0910   26.1100 C   0  0  0  0  0  0  0  0  0  0  0  0
    8.8820   12.8640   25.8440 C   0  0  0  0  0  0  0  0  0  0  0  0
    7.6760   12.5410   26.5030 C   0  0  0  0  0  0  0  0  0  0  0  0
    6.9600   11.3440   26.2630 C   0  0  0  0  0  0  0  0  0  0  0  0
    7.4290   10.4030   25.3460 C   0  0  0  0  0  0  0  0  0  0  0  0
    8.6150   10.7130   24.6800 C   0  0  0  0  0  0  0  0  0  0  0  0
    9.3230   11.9030   24.9000 C   0  0  0  0  0  0  0  0  0  0  0  0
   10.4350   11.9440   24.0940 N   0  0  0  0  0  0  0  0  0  0  0  0
   10.4300   10.8220   23.4170 C   0  0  0  0  0  0  0  0  0  0  0  0
    9.3660   10.0470   23.7420 N   0  0  0  0  0  0  0  0  0  0  0  0
    9.1120    8.7500   23.1800 C   0  0  0  0  0  0  0  0  0  0  0  0
   13.4950   13.0870   27.6360 C   0  0  0  0  0  0  0  0  0  0  0  0
  1  2  1  0
  2  3  1  0
  3  4  2  0
  3  5  1  0
  5  6  1  0
  6  7  2  0
  7  8  1  0
  8  9  2  0
  9 10  1  0
 10 11  1  0
 11 12  1  0
 12 13  1  0
 13 14  1  0
 14 15  2  0
 15 16  1  0
 16 17  2  0
 17 18  1  0
 18 19  2  0
 19 20  1  0
 20 21  2  0
 21 22  1  0
 22 23  1  0
 10 24  2  0
 24  6  1  0
 19 14  1  0
 22 18  1  0
A    1
 C1 
A    2
 C2 
A    3
 C3 
A    4
 O1 
A    5
 N1 
A    6
 C4 
A    7
 C5 
A    8
 C6 
A    9
 C7 
A   10
 C8 
A   11
 C9 
A   12
 N2 
A   13
 C10
A   14
 C11
A   15
 C12
A   16
 C13
A   17
 C14
A   18
 C15
A   19
 C16
A   20
 N3 
A   21
 C17
A   22
 N4 
A   23
 C18
A   24
 C19
M  END
>  <ref_pdb>  (87) 
x0554_0A

>  <ref_mols>  (87) 
x0451_0A

>  <original SMILES>  (87) 
CCC(=O)Nc1cccc(CNCc2cccc3c2ncn3C)c1

>  <rationale>  (87) 
info cluster #6 (rank 9); hydroph_interaction:L22+Y89+P107+A110; 

>  <cluster_rank>  (87) 
9

>  <N_interactions>  (87) 
5

>  <N_interactions_lost>  (87) 
1

>  <∆∆G>  (87) 
-9.405948

>  <comRMSD>  (87) 
0.973475

>  <N_rotatable_bonds>  (87) 
8

>  <N_unconstrained_atoms>  (87) 
2

>  <N_constrained_atoms>  (87) 
22

>  <price>  (87) 
0

$$$$
Z3295207213
     RDKit          3D

 18 19  0  0  0  0  0  0  0  0999 V2000
    9.1960   16.0290   21.3470 C   0  0  0  0  0  0  0  0  0  0  0  0
   10.5590   15.3630   21.1520 C   0  0  0  0  0  0  0  0  0  0  0  0
   10.7530   14.9010   19.7050 C   0  0  0  0  0  0  0  0  0  0  0  0
   10.9000   14.3020   22.1360 N   0  0  0  0  0  0  0  0  0  0  0  0
   12.3190   14.0690   22.2150 C   0  0  0  0  0  0  0  0  0  0  0  0
   10.1270   14.1210   23.2900 C   0  0  0  0  0  0  0  0  0  0  0  0
    9.7860   15.0750   23.9820 O   0  0  0  0  0  0  0  0  0  0  0  0
    9.7320   12.7790   23.7190 C   0  0  0  0  0  0  0  0  0  0  0  0
   10.3750   11.6100   23.3500 C   0  0  0  0  0  0  0  0  0  0  0  0
    9.7740   10.5270   23.9110 O   0  0  0  0  0  0  0  0  0  0  0  0
    8.7350   10.9940   24.6530 C   0  0  0  0  0  0  0  0  0  0  0  0
    7.8650   10.2060   25.3950 C   0  0  0  0  0  0  0  0  0  0  0  0
    6.8600   10.8710   26.0890 C   0  0  0  0  0  0  0  0  0  0  0  0
    5.9890   10.1580   26.8240 F   0  0  0  0  0  0  0  0  0  0  0  0
    6.7290   12.2490   26.0500 C   0  0  0  0  0  0  0  0  0  0  0  0
    7.6260   13.0080   25.2930 C   0  0  0  0  0  0  0  0  0  0  0  0
    7.4810   14.3400   25.2720 F   0  0  0  0  0  0  0  0  0  0  0  0
    8.6590   12.3760   24.5720 C   0  0  0  0  0  0  0  0  0  0  0  0
  1  2  1  0
  2  3  1  0
  2  4  1  0
  4  5  1  0
  4  6  1  0
  6  7  2  0
  6  8  1  0
  8  9  2  0
  9 10  1  0
 10 11  1  0
 11 12  2  0
 12 13  1  0
 13 14  1  0
 13 15  2  0
 15 16  1  0
 16 17  1  0
 16 18  2  0
 18  8  1  0
 18 11  1  0
A    1
 C1 
A    2
 C2 
A    3
 C3 
A    4
 N1 
A    5
 C4 
A    6
 C5 
A    7
 O1 
A    8
 C6 
A    9
 C7 
A   10
 O2 
A   11
 C8 
A   12
 C9 
A   13
 C10
A   14
 F1 
A   15
 C11
A   16
 C12
A   17
 F2 
A   18
 C13
M  END
>  <ref_pdb>  (88) 
x0554_0A

>  <ref_mols>  (88) 
x0451_0A,x0556_0A

>  <original SMILES>  (88) 
CC(C)N(C)C(=O)c1coc2cc(F)cc(F)c12

>  <rationale>  (88) 
info cluster #3 (rank 9); halogenbond:S105; hbond:S87; hydroph_interaction:V84; 

>  <cluster_rank>  (88) 
9

>  <N_interactions>  (88) 
3

>  <N_interactions_lost>  (88) 
1

>  <∆∆G>  (88) 
-7.170089

>  <comRMSD>  (88) 
0.802255

>  <N_rotatable_bonds>  (88) 
5

>  <N_unconstrained_atoms>  (88) 
1

>  <N_constrained_atoms>  (88) 
18

>  <price>  (88) 
163

$$$$
Z1273099535
     RDKit          3D

 15 16  0  0  0  0  0  0  0  0999 V2000
   11.0600   14.6080   20.3870 C   0  0  0  0  0  0  0  0  0  0  0  0
   10.1920   15.0970   21.5390 C   0  0  0  0  0  0  0  0  0  0  0  0
    9.3090   16.2430   21.0540 C   0  0  0  0  0  0  0  0  0  0  0  0
    9.4640   14.1530   22.2070 N   0  0  0  0  0  0  0  0  0  0  0  0
   10.2220   13.1560   22.9800 C   0  0  0  0  0  0  0  0  0  0  0  0
   11.4330   13.2380   23.0870 O   0  0  0  0  0  0  0  0  0  0  0  0
    9.6010   12.0570   23.6290 C   0  0  0  0  0  0  0  0  0  0  0  0
   10.0700   10.7600   23.3520 C   0  0  0  0  0  0  0  0  0  0  0  0
    9.4910    9.5660   24.0080 C   0  0  0  0  0  0  0  0  0  0  0  0
    8.5130    9.7060   24.8730 C   0  0  0  0  0  0  0  0  0  0  0  0
    7.9950   10.9420   25.1860 C   0  0  0  0  0  0  0  0  0  0  0  0
    8.5210   12.1290   24.5780 C   0  0  0  0  0  0  0  0  0  0  0  0
    7.8140   13.2160   25.0840 N   0  0  0  0  0  0  0  0  0  0  0  0
    6.8530   12.8160   25.9850 C   0  0  0  0  0  0  0  0  0  0  0  0
    6.9450   11.3020   26.0780 C   0  0  0  0  0  0  0  0  0  0  0  0
  1  2  1  0
  2  3  1  0
  2  4  1  0
  4  5  1  0
  5  6  2  0
  5  7  1  0
  7  8  2  0
  8  9  1  0
  9 10  2  0
 10 11  1  0
 11 12  2  0
 12 13  1  0
 13 14  1  0
 14 15  2  0
 12  7  1  0
 15 11  1  0
A    1
 C1 
A    2
 C2 
A    3
 C3 
A    4
 N1 
A    5
 C4 
A    6
 O1 
A    7
 C5 
A    8
 C6 
A    9
 C7 
A   10
 C8 
A   11
 C9 
A   12
 C10
A   13
 N2 
A   14
 C11
A   15
 C12
M  END
>  <ref_pdb>  (89) 
x0554_0A

>  <ref_mols>  (89) 
x0566_0A

>  <original SMILES>  (89) 
CC(C)NC(=O)c1cccc2cc[nH]c12

>  <rationale>  (89) 
info cluster #1 (rank 9); hbond:T126; hydroph_interaction:V84; 

>  <cluster_rank>  (89) 
9

>  <N_interactions>  (89) 
2

>  <N_interactions_lost>  (89) 
0

>  <∆∆G>  (89) 
-6.688682

>  <comRMSD>  (89) 
0.575521

>  <N_rotatable_bonds>  (89) 
4

>  <N_unconstrained_atoms>  (89) 
0

>  <N_constrained_atoms>  (89) 
16

>  <price>  (89) 
0

$$$$
Z1291192055
     RDKit          3D

 14 15  0  0  0  0  0  0  0  0999 V2000
   12.3250   14.9530   21.5130 C   0  0  0  0  0  0  0  0  0  0  0  0
   10.8990   14.8350   21.8810 C   0  0  0  0  0  0  0  0  0  0  0  0
   10.6350   13.7130   22.3210 O   0  0  0  0  0  0  0  0  0  0  0  0
   10.3620   13.6760   23.6520 C   0  0  0  0  0  0  0  0  0  0  0  0
   10.7240   14.5270   24.4450 O   0  0  0  0  0  0  0  0  0  0  0  0
    9.6040   12.5530   24.0710 C   0  0  0  0  0  0  0  0  0  0  0  0
    8.4600   12.7290   24.9670 C   0  0  0  0  0  0  0  0  0  0  0  0
    7.6740   11.5790   25.4220 C   0  0  0  0  0  0  0  0  0  0  0  0
    7.9440   10.2050   25.0400 C   0  0  0  0  0  0  0  0  0  0  0  0
    9.0390   10.0720   24.1760 C   0  0  0  0  0  0  0  0  0  0  0  0
    9.8330   11.1970   23.7150 C   0  0  0  0  0  0  0  0  0  0  0  0
   10.8150   10.7080   22.8970 N   0  0  0  0  0  0  0  0  0  0  0  0
   10.7320    9.3640   22.7830 C   0  0  0  0  0  0  0  0  0  0  0  0
    9.6080    8.9500   23.5870 C   0  0  0  0  0  0  0  0  0  0  0  0
  1  2  1  0
  2  3  1  0
  3  4  1  0
  4  5  2  0
  4  6  1  0
  6  7  2  0
  7  8  1  0
  8  9  2  0
  9 10  1  0
 10 11  2  0
 11 12  1  0
 12 13  1  0
 13 14  2  0
 11  6  1  0
 14 10  1  0
A    1
 C1 
A    2
 C2 
A    3
 O1 
A    4
 C3 
A    5
 O2 
A    6
 C4 
A    7
 C5 
A    8
 C6 
A    9
 C7 
A   10
 C8 
A   11
 C9 
A   12
 N1 
A   13
 C10
A   14
 C11
M  END
>  <ref_pdb>  (90) 
x0554_0A

>  <ref_mols>  (90) 
x0554_0A,x0451_0A

>  <original SMILES>  (90) 
CCOC(=O)c1cccc2cc[nH]c12

>  <rationale>  (90) 
info cluster #4 (rank 9); hydroph_interaction:Y89; saltbridge:H21; 

>  <cluster_rank>  (90) 
9

>  <N_interactions>  (90) 
2

>  <N_interactions_lost>  (90) 
0

>  <∆∆G>  (90) 
-5.711766

>  <comRMSD>  (90) 
0.96016

>  <N_rotatable_bonds>  (90) 
3

>  <N_unconstrained_atoms>  (90) 
3

>  <N_constrained_atoms>  (90) 
12

>  <price>  (90) 
0

$$$$
Z3796506747
     RDKit          3D

 15 15  0  0  0  0  0  0  0  0999 V2000
   10.2300    9.1660   23.2330 C   0  0  0  0  0  0  0  0  0  0  0  0
    9.3250   10.2100   23.8700 C   0  0  0  0  0  0  0  0  0  0  0  0
    9.5310   11.6930   23.5830 C   0  0  0  0  0  0  0  0  0  0  0  0
    8.5550   12.6200   24.2690 C   0  0  0  0  0  0  0  0  0  0  0  0
    8.6700   14.1250   24.0390 C   0  0  0  0  0  0  0  0  0  0  0  0
    8.9550   14.4010   22.6540 N   0  0  0  0  0  0  0  0  0  0  0  0
   10.0820   15.1090   22.2960 C   0  0  0  0  0  0  0  0  0  0  0  0
   10.9600   15.4390   23.0780 O   0  0  0  0  0  0  0  0  0  0  0  0
   10.0750   15.4500   20.7910 C   0  0  2  0  0  0  0  0  0  0  0  0
   11.2030   14.8000   19.9890 C   0  0  0  0  0  0  0  0  0  0  0  0
   10.1640   16.8160   20.7030 N   0  0  0  0  0  0  0  0  0  0  0  0
    7.5790   12.0500   25.0920 C   0  0  0  0  0  0  0  0  0  0  0  0
    7.4460   10.7520   25.3130 N   0  0  0  0  0  0  0  0  0  0  0  0
    8.2920    9.8910   24.7190 C   0  0  0  0  0  0  0  0  0  0  0  0
    8.1320    8.6100   24.9620 F   0  0  0  0  0  0  0  0  0  0  0  0
  1  2  1  0
  2  3  2  0
  3  4  1  0
  4  5  1  0
  5  6  1  0
  6  7  1  0
  7  8  2  0
  7  9  1  0
  9 10  1  6
  9 11  1  0
  4 12  2  0
 12 13  1  0
 13 14  2  0
 14 15  1  0
 14  2  1  0
A    1
 C1 
A    2
 C2 
A    3
 C3 
A    4
 C4 
A    5
 C5 
A    6
 N1 
A    7
 C6 
A    8
 O1 
A    9
 C7 
A   10
 C8 
A   11
 N2 
A   12
 C9 
A   13
 N3 
A   14
 C10
A   15
 F1 
M  END
>  <ref_pdb>  (91) 
x0554_0A

>  <ref_mols>  (91) 
x0416_0A

>  <original SMILES>  (91) 
Cc1cc(CNC(=O)[C@H](C)N)cnc1F

>  <rationale>  (91) 
info cluster #9 (rank 9); hbond:S87+T126; hydroph_interaction:V124; 

>  <cluster_rank>  (91) 
9

>  <N_interactions>  (91) 
4

>  <N_interactions_lost>  (91) 
1

>  <∆∆G>  (91) 
-7.350161

>  <comRMSD>  (91) 
0.434047

>  <N_rotatable_bonds>  (91) 
6

>  <N_unconstrained_atoms>  (91) 
3

>  <N_constrained_atoms>  (91) 
12

>  <price>  (91) 
0

$$$$
PV_002237875611
     RDKit          3D

 12 12  0  0  0  0  0  0  0  0999 V2000
   11.9110   14.4140   22.3650 C   0  0  0  0  0  0  0  0  0  0  0  0
   11.1840   13.6100   23.4350 C   0  0  0  0  0  0  0  0  0  0  0  0
   11.0490   14.0460   24.5710 O   0  0  0  0  0  0  0  0  0  0  0  0
   10.7290   12.3990   22.9670 N   0  0  0  0  0  0  0  0  0  0  0  0
    9.8220   11.4820   23.5590 C   0  0  0  0  0  0  0  0  0  0  0  0
    9.8040   10.1360   23.2220 C   0  0  0  0  0  0  0  0  0  0  0  0
    8.7940    9.2360   23.8920 C   0  0  0  0  0  0  0  0  0  0  0  0
    8.8350    7.7860   23.4420 C   0  0  0  0  0  0  0  0  0  0  0  0
    7.9130    9.7540   24.8370 C   0  0  0  0  0  0  0  0  0  0  0  0
    7.9630   11.1040   25.1450 C   0  0  0  0  0  0  0  0  0  0  0  0
    8.8890   11.9440   24.5190 C   0  0  0  0  0  0  0  0  0  0  0  0
    8.8640   13.2440   24.8620 F   0  0  0  0  0  0  0  0  0  0  0  0
  1  2  1  0
  2  3  2  0
  2  4  1  0
  4  5  1  0
  5  6  2  0
  6  7  1  0
  7  8  1  0
  7  9  2  0
  9 10  1  0
 10 11  2  0
 11 12  1  0
 11  5  1  0
A    1
 C1 
A    2
 C2 
A    3
 O1 
A    4
 N1 
A    5
 C3 
A    6
 C4 
A    7
 C5 
A    8
 C6 
A    9
 C7 
A   10
 C8 
A   11
 C9 
A   12
 F1 
M  END
>  <ref_pdb>  (92) 
x0554_0A

>  <ref_mols>  (92) 
x0554_0A,x0310_0A

>  <original SMILES>  (92) 
CC(=O)Nc1cc(C)ccc1F

>  <rationale>  (92) 
info cluster #8 (rank 10); hbond:S125; hydroph_interaction:Y89+D109+V124; 

>  <cluster_rank>  (92) 
10

>  <N_interactions>  (92) 
4

>  <N_interactions_lost>  (92) 
2

>  <∆∆G>  (92) 
-8.064239

>  <comRMSD>  (92) 
0.640725

>  <N_rotatable_bonds>  (92) 
3

>  <N_unconstrained_atoms>  (92) 
1

>  <N_constrained_atoms>  (92) 
13

>  <price>  (92) 
0

$$$$
PV_002721485426
     RDKit          3D

 15 16  0  0  0  0  0  0  0  0999 V2000
   11.9450   14.4070   22.5150 C   0  0  0  0  0  0  0  0  0  0  0  0
   11.1450   13.6030   23.5420 C   0  0  0  0  0  0  0  0  0  0  0  0
   11.1100   13.9380   24.7170 O   0  0  0  0  0  0  0  0  0  0  0  0
   10.5220   12.5210   22.9700 N   0  0  0  0  0  0  0  0  0  0  0  0
    9.8010   11.4390   23.5480 C   0  0  0  0  0  0  0  0  0  0  0  0
    8.7020   11.5180   24.4970 C   0  0  0  0  0  0  0  0  0  0  0  0
    8.1620   12.6650   25.0230 C   0  0  0  0  0  0  0  0  0  0  0  0
    7.1080   12.5500   25.9170 N   0  0  0  0  0  0  0  0  0  0  0  0
    6.5670   11.2800   26.3070 C   0  0  0  0  0  0  0  0  0  0  0  0
    5.3980   11.1770   27.3030 C   0  0  0  0  0  0  0  0  0  0  0  0
    7.1200   10.1750   25.7740 C   0  0  0  0  0  0  0  0  0  0  0  0
    8.1680   10.2840   24.8860 C   0  0  0  0  0  0  0  0  0  0  0  0
    8.6450    8.9330   24.4070 C   0  0  0  0  0  0  0  0  0  0  0  0
    9.6840    8.9250   23.5130 C   0  0  0  0  0  0  0  0  0  0  0  0
   10.2420   10.1360   23.0990 C   0  0  0  0  0  0  0  0  0  0  0  0
  1  2  1  0
  2  3  2  0
  2  4  1  0
  4  5  1  0
  5  6  2  0
  6  7  1  0
  7  8  2  0
  8  9  1  0
  9 10  1  0
  9 11  2  0
 11 12  1  0
 12 13  2  0
 13 14  1  0
 14 15  2  0
 15  5  1  0
 12  6  1  0
A    1
 C1 
A    2
 C2 
A    3
 O1 
A    4
 N1 
A    5
 C3 
A    6
 C4 
A    7
 C5 
A    8
 N2 
A    9
 C6 
A   10
 C7 
A   11
 C8 
A   12
 C9 
A   13
 C10
A   14
 C11
A   15
 C12
M  END
>  <ref_pdb>  (93) 
x0554_0A

>  <ref_mols>  (93) 
x0554_0A,x0451_0A

>  <original SMILES>  (93) 
CC(=O)Nc1cccc2cc(C)ncc12

>  <rationale>  (93) 
info cluster #5 (rank 10); hbond:S125; hydroph_interaction:Y89+V124; 

>  <cluster_rank>  (93) 
10

>  <N_interactions>  (93) 
3

>  <N_interactions_lost>  (93) 
1

>  <∆∆G>  (93) 
-9.062471

>  <comRMSD>  (93) 
0.751486

>  <N_rotatable_bonds>  (93) 
3

>  <N_unconstrained_atoms>  (93) 
1

>  <N_constrained_atoms>  (93) 
16

>  <price>  (93) 
0

$$$$
Z1798083960
     RDKit          3D

 15 15  0  0  0  0  0  0  0  0999 V2000
   12.2780   15.0180   20.4550 C   0  0  0  0  0  0  0  0  0  0  0  0
   10.8990   14.9570   19.8280 C   0  0  0  0  0  0  0  0  0  0  0  0
    9.8250   15.5440   20.7240 C   0  0  2  0  0  0  0  0  0  0  0  0
    9.7120   17.0480   20.5890 C   0  0  0  0  0  0  0  0  0  0  0  0
   10.0000   15.1330   22.1780 C   0  0  0  0  0  0  0  0  0  0  0  0
   10.7160   15.6990   23.0010 O   0  0  0  0  0  0  0  0  0  0  0  0
    9.2080   14.0540   22.4330 O   0  0  0  0  0  0  0  0  0  0  0  0
    8.8050   13.9300   23.8010 C   0  0  0  0  0  0  0  0  0  0  0  0
    8.6740   12.5780   24.1570 C   0  0  0  0  0  0  0  0  0  0  0  0
    7.7010   12.1790   25.0780 C   0  0  0  0  0  0  0  0  0  0  0  0
    7.5100   10.9090   25.4780 N   0  0  0  0  0  0  0  0  0  0  0  0
    8.3210    9.9790   24.9340 C   0  0  0  0  0  0  0  0  0  0  0  0
    9.3130   10.2480   24.0060 C   0  0  0  0  0  0  0  0  0  0  0  0
   10.1730    9.1540   23.4350 C   0  0  0  0  0  0  0  0  0  0  0  0
    9.4950   11.5810   23.6150 C   0  0  0  0  0  0  0  0  0  0  0  0
  1  2  1  0
  2  3  1  0
  3  4  1  1
  3  5  1  0
  5  6  2  0
  5  7  1  0
  7  8  1  0
  8  9  1  0
  9 10  2  0
 10 11  1  0
 11 12  2  0
 12 13  1  0
 13 14  1  0
 13 15  2  0
 15  9  1  0
A    1
 C1 
A    2
 C2 
A    3
 C3 
A    4
 C4 
A    5
 C5 
A    6
 O1 
A    7
 O2 
A    8
 C6 
A    9
 C7 
A   10
 C8 
A   11
 N1 
A   12
 C9 
A   13
 C10
A   14
 C11
A   15
 C12
M  END
>  <ref_pdb>  (94) 
x0554_0A

>  <ref_mols>  (94) 
x0416_0A

>  <original SMILES>  (94) 
CCC(C)C(=O)OCc1cncc(C)c1

>  <rationale>  (94) 
info cluster #2 (rank 10); hbond:S87; hydroph_interaction:Y90+V124+V84; 

>  <cluster_rank>  (94) 
10

>  <N_interactions>  (94) 
5

>  <N_interactions_lost>  (94) 
1

>  <∆∆G>  (94) 
-9.792736

>  <comRMSD>  (94) 
0.492393

>  <N_rotatable_bonds>  (94) 
7

>  <N_unconstrained_atoms>  (94) 
3

>  <N_constrained_atoms>  (94) 
12

>  <price>  (94) 
0

$$$$
PV_002210460146
     RDKit          3D

 13 13  0  0  0  0  0  0  0  0999 V2000
   11.8540   14.2070   22.3730 C   0  0  0  0  0  0  0  0  0  0  0  0
   11.1020   13.4660   23.4810 C   0  0  0  0  0  0  0  0  0  0  0  0
   11.1050   13.9030   24.6250 O   0  0  0  0  0  0  0  0  0  0  0  0
   10.4680   12.3180   23.0340 N   0  0  0  0  0  0  0  0  0  0  0  0
    9.5420   11.4730   23.7280 C   0  0  0  0  0  0  0  0  0  0  0  0
    8.5350   11.9490   24.6190 C   0  0  0  0  0  0  0  0  0  0  0  0
    8.3100   13.8020   24.9640 Br  0  0  0  0  0  0  0  0  0  0  0  0
    7.7020   11.1100   25.2490 C   0  0  0  0  0  0  0  0  0  0  0  0
    6.7610   11.5610   26.0870 F   0  0  0  0  0  0  0  0  0  0  0  0
    7.7530    9.6470   25.0730 C   0  0  0  0  0  0  0  0  0  0  0  0
    8.7230    9.1860   24.1990 C   0  0  0  0  0  0  0  0  0  0  0  0
    9.5890   10.0720   23.5440 C   0  0  0  0  0  0  0  0  0  0  0  0
   10.5370    9.3520   22.6460 C   0  0  0  0  0  0  0  0  0  0  0  0
  1  2  1  0
  2  3  2  0
  2  4  1  0
  4  5  1  0
  5  6  2  0
  6  7  1  0
  6  8  1  0
  8  9  1  0
  8 10  2  0
 10 11  1  0
 11 12  2  0
 12 13  1  0
 12  5  1  0
A    1
 C1 
A    2
 C2 
A    3
 O1 
A    4
 N1 
A    5
 C3 
A    6
 C4 
A    7
BR1 
A    8
 C5 
A    9
 F1 
A   10
 C6 
A   11
 C7 
A   12
 C8 
A   13
 C9 
M  END
>  <ref_pdb>  (95) 
x0554_0A

>  <ref_mols>  (95) 
x0554_0A,x0310_0A

>  <original SMILES>  (95) 
CC(=O)Nc1c(C)ccc(F)c1Br

>  <rationale>  (95) 
info cluster #0 (rank 10); hbond:S125; hydroph_interaction:A110+V124; 

>  <cluster_rank>  (95) 
10

>  <N_interactions>  (95) 
3

>  <N_interactions_lost>  (95) 
1

>  <∆∆G>  (95) 
-7.372717

>  <comRMSD>  (95) 
0.62168

>  <N_rotatable_bonds>  (95) 
3

>  <N_unconstrained_atoms>  (95) 
0

>  <N_constrained_atoms>  (95) 
13

>  <price>  (95) 
0

$$$$
Z3643921225
     RDKit          3D

 15 15  0  0  0  0  0  0  0  0999 V2000
    9.8140    8.7950   23.3430 C   0  0  0  0  0  0  0  0  0  0  0  0
    9.1010    9.9750   23.9740 C   0  0  0  0  0  0  0  0  0  0  0  0
    7.9790    9.7860   24.7620 N   0  0  0  0  0  0  0  0  0  0  0  0
    7.5860   11.0240   25.1650 N   0  0  0  0  0  0  0  0  0  0  0  0
    6.4200   11.2710   26.0200 C   0  0  0  0  0  0  0  0  0  0  0  0
    6.0090    9.9760   26.6290 C   0  0  0  0  0  0  0  0  0  0  0  0
    6.7450   12.2430   27.1250 C   0  0  0  0  0  0  0  0  0  0  0  0
    8.4490   11.8450   24.6280 C   0  0  0  0  0  0  0  0  0  0  0  0
    9.4500   11.3570   23.8620 C   0  0  0  0  0  0  0  0  0  0  0  0
   10.4830   11.9800   23.1850 N   0  0  0  0  0  0  0  0  0  0  0  0
   11.1030   13.1090   23.6590 C   0  0  0  0  0  0  0  0  0  0  0  0
   10.7950   13.6240   24.7200 O   0  0  0  0  0  0  0  0  0  0  0  0
   12.2010   13.6760   22.7740 C   0  0  0  0  0  0  0  0  0  0  0  0
   11.8600   15.0390   22.3180 C   0  0  0  0  0  0  0  0  0  0  0  0
   11.5250   16.3100   21.9870 N   0  0  0  0  0  0  0  0  0  0  0  0
  1  2  1  0
  2  3  2  0
  3  4  1  0
  4  5  1  0
  5  6  1  0
  5  7  1  0
  4  8  1  0
  8  9  2  0
  9 10  1  0
 10 11  1  0
 11 12  2  0
 11 13  1  0
 13 14  1  0
 14 15  3  0
  9  2  1  0
A    1
 C1 
A    2
 C2 
A    3
 N1 
A    4
 N2 
A    5
 C3 
A    6
 C4 
A    7
 C5 
A    8
 C6 
A    9
 C7 
A   10
 N3 
A   11
 C8 
A   12
 O1 
A   13
 C9 
A   14
 C10
A   15
 N4 
M  END
>  <ref_pdb>  (96) 
x0554_0A

>  <ref_mols>  (96) 
x0310_0A,x0556_0A

>  <original SMILES>  (96) 
Cc1nn(C(C)C)cc1NC(=O)CC#N

>  <rationale>  (96) 
info cluster #7 (rank 10); hbond:S87+S125; hydroph_interaction:Y89+P107+D109+V124; 

>  <cluster_rank>  (96) 
10

>  <N_interactions>  (96) 
7

>  <N_interactions_lost>  (96) 
3

>  <∆∆G>  (96) 
-8.096612

>  <comRMSD>  (96) 
0.672351

>  <N_rotatable_bonds>  (96) 
6

>  <N_unconstrained_atoms>  (96) 
0

>  <N_constrained_atoms>  (96) 
16

>  <price>  (96) 
0

$$$$
PV_007062965961
     RDKit          3D

 16 17  0  0  0  0  0  0  0  0999 V2000
   12.1470   14.9270   21.5780 C   0  0  0  0  0  0  0  0  0  0  0  0
   11.5840   13.7140   22.1840 N   0  0  0  0  0  0  0  0  0  0  0  0
   10.1710   13.9250   23.0920 S   0  0  0  0  0  6  0  0  0  0  0  0
   10.5170   14.6960   24.2620 O   0  0  0  0  0  0  0  0  0  0  0  0
    9.1390   14.2950   22.1410 O   0  0  0  0  0  0  0  0  0  0  0  0
    9.5970   12.4240   23.6950 C   0  0  0  0  0  0  0  0  0  0  0  0
   10.0870   11.0980   23.2540 C   0  0  0  0  0  0  0  0  0  0  0  0
    9.3130   10.1330   23.9880 N   0  0  0  0  0  0  0  0  0  0  0  0
    9.5670    8.7220   23.7310 C   0  0  0  0  0  0  0  0  0  0  0  0
    8.4340   10.8170   24.8330 C   0  0  0  0  0  0  0  0  0  0  0  0
    7.5470   10.2060   25.6950 C   0  0  0  0  0  0  0  0  0  0  0  0
    6.7300   11.0120   26.4580 C   0  0  0  0  0  0  0  0  0  0  0  0
    6.8350   12.3950   26.3400 C   0  0  0  0  0  0  0  0  0  0  0  0
    7.7360   12.9910   25.4750 C   0  0  0  0  0  0  0  0  0  0  0  0
    7.7320   14.8900   25.4570 Br  0  0  0  0  0  0  0  0  0  0  0  0
    8.5640   12.2080   24.6920 C   0  0  0  0  0  0  0  0  0  0  0  0
  1  2  1  0
  2  3  1  0
  3  4  2  0
  3  5  2  0
  3  6  1  0
  6  7  2  0
  7  8  1  0
  8  9  1  0
  8 10  1  0
 10 11  2  0
 11 12  1  0
 12 13  2  0
 13 14  1  0
 14 15  1  0
 14 16  2  0
 16  6  1  0
 16 10  1  0
A    1
 C1 
A    2
 N1 
A    3
 S1 
A    4
 O1 
A    5
 O2 
A    6
 C2 
A    7
 C3 
A    8
 N2 
A    9
 C4 
A   10
 C5 
A   11
 C6 
A   12
 C7 
A   13
 C8 
A   14
 C9 
A   15
BR1 
A   16
 C10
M  END
>  <ref_pdb>  (97) 
x0554_0A

>  <ref_mols>  (97) 
x0451_0A,x0566_0A

>  <original SMILES>  (97) 
CNS(=O)(=O)c1cn(C)c2cccc(Br)c12

>  <rationale>  (97) 
info cluster #6 (rank 10); hbond:H21; 

>  <cluster_rank>  (97) 
10

>  <N_interactions>  (97) 
1

>  <N_interactions_lost>  (97) 
0

>  <∆∆G>  (97) 
-9.322566

>  <comRMSD>  (97) 
0.612909

>  <N_rotatable_bonds>  (97) 
4

>  <N_unconstrained_atoms>  (97) 
1

>  <N_constrained_atoms>  (97) 
15

>  <price>  (97) 
0

$$$$
PV_002829161007
     RDKit          3D

 17 19  0  0  0  0  0  0  0  0999 V2000
    9.1830    8.4250   23.6800 C   0  0  0  0  0  0  0  0  0  0  0  0
    9.0340    9.8340   23.9010 N   0  0  0  0  0  0  0  0  0  0  0  0
    9.7630   10.8320   23.2360 C   0  0  0  0  0  0  0  0  0  0  0  0
    9.3150   12.1720   23.7010 C   0  0  0  0  0  0  0  0  0  0  0  0
    9.9150   13.3680   23.1100 C   0  0  0  0  0  0  0  0  0  0  0  0
    9.1250   14.2410   22.3710 C   0  0  0  0  0  0  0  0  0  0  0  0
    9.7860   15.4630   21.7670 C   0  0  0  0  0  0  0  0  0  0  0  0
    9.1020   16.4090   21.0000 N   0  0  0  0  0  0  0  0  0  0  0  0
   11.2140   15.5680   22.0610 C   0  0  0  0  0  0  0  0  0  0  0  0
   11.8660   14.6540   22.7950 N   0  0  0  0  0  0  0  0  0  0  0  0
   11.2310   13.5650   23.3110 N   0  0  0  0  0  0  0  0  0  0  0  0
    8.3200   11.8990   24.6840 C   0  0  0  0  0  0  0  0  0  0  0  0
    7.5440   12.7010   25.4810 C   0  0  0  0  0  0  0  0  0  0  0  0
    6.6250   12.1390   26.3680 C   0  0  0  0  0  0  0  0  0  0  0  0
    6.4830   10.7680   26.4540 C   0  0  0  0  0  0  0  0  0  0  0  0
    7.2520    9.9290   25.6630 C   0  0  0  0  0  0  0  0  0  0  0  0
    8.1670   10.4820   24.7820 C   0  0  0  0  0  0  0  0  0  0  0  0
  1  2  1  0
  2  3  1  0
  3  4  2  0
  4  5  1  0
  5  6  2  0
  6  7  1  0
  7  8  1  0
  7  9  2  0
  9 10  1  0
 10 11  2  0
  4 12  1  0
 12 13  2  0
 13 14  1  0
 14 15  2  0
 15 16  1  0
 16 17  2  0
 17  2  1  0
 11  5  1  0
 17 12  1  0
A    1
 C1 
A    2
 N1 
A    3
 C2 
A    4
 C3 
A    5
 C4 
A    6
 C5 
A    7
 C6 
A    8
 N2 
A    9
 C7 
A   10
 N3 
A   11
 N4 
A   12
 C8 
A   13
 C9 
A   14
 C10
A   15
 C11
A   16
 C12
A   17
 C13
M  END
>  <ref_pdb>  (98) 
x0554_0A

>  <ref_mols>  (98) 
x0451_0A,x0566_0A

>  <original SMILES>  (98) 
Cn1cc(-c2cc(N)cnn2)c2ccccc21

>  <rationale>  (98) 
info cluster #1 (rank 10); hbond:S87+T126; 

>  <cluster_rank>  (98) 
10

>  <N_interactions>  (98) 
2

>  <N_interactions_lost>  (98) 
1

>  <∆∆G>  (98) 
-6.855306

>  <comRMSD>  (98) 
0.759739

>  <N_rotatable_bonds>  (98) 
3

>  <N_unconstrained_atoms>  (98) 
0

>  <N_constrained_atoms>  (98) 
17

>  <price>  (98) 
0

$$$$
Z2827962607
     RDKit          3D

 15 15  0  0  0  0  0  0  0  0999 V2000
   10.5940    9.5840   23.3730 C   0  0  0  0  0  0  0  0  0  0  0  0
    9.5340   10.4070   24.0240 C   0  0  0  0  0  0  0  0  0  0  0  0
    9.3460   11.7860   23.8950 C   0  0  0  0  0  0  0  0  0  0  0  0
   10.3210   12.4590   23.0380 N   0  0  0  0  0  0  0  0  0  0  0  0
   11.1300   13.4230   23.5370 C   0  0  0  0  0  0  0  0  0  0  0  0
   10.9190   13.9090   24.6440 O   0  0  0  0  0  0  0  0  0  0  0  0
   12.2690   13.8440   22.6840 C   0  0  0  0  0  0  0  0  0  0  0  0
   12.0740   15.0860   21.8850 C   0  0  0  0  0  0  0  0  0  0  0  0
   11.2750   15.9240   22.5440 N   0  0  0  0  0  0  0  0  0  0  0  0
    8.2250   12.2510   24.6470 C   0  0  0  0  0  0  0  0  0  0  0  0
    7.5770   11.1140   25.3710 C   0  0  0  0  0  0  0  0  0  0  0  0
    6.3650   11.2720   26.2510 C   0  0  0  0  0  0  0  0  0  0  0  0
    5.7820    9.9790   26.5150 N   0  0  0  0  0  0  0  0  0  0  0  0
    5.8680   12.2940   26.7180 O   0  0  0  0  0  0  0  0  0  0  0  0
    8.3980    9.6770   25.0480 S   0  0  0  0  0  0  0  0  0  0  0  0
  1  2  1  0
  2  3  2  0
  3  4  1  0
  4  5  1  0
  5  6  2  0
  5  7  1  0
  7  8  1  0
  8  9  1  0
  3 10  1  0
 10 11  2  0
 11 12  1  0
 12 13  1  0
 12 14  2  0
 11 15  1  0
 15  2  1  0
A    1
 C1 
A    2
 C2 
A    3
 C3 
A    4
 N1 
A    5
 C4 
A    6
 O1 
A    7
 C5 
A    8
 C6 
A    9
 N2 
A   10
 C7 
A   11
 C8 
A   12
 C9 
A   13
 N3 
A   14
 O2 
A   15
 S1 
M  END
>  <ref_pdb>  (99) 
x0554_0A

>  <ref_mols>  (99) 
x0310_0A,x0556_0A

>  <original SMILES>  (99) 
Cc1sc(C(N)=O)cc1NC(=O)CCN

>  <rationale>  (99) 
info cluster #3 (rank 10); hbond:S87+S105+S125; hydroph_interaction:Y89+A110; 

>  <cluster_rank>  (99) 
10

>  <N_interactions>  (99) 
6

>  <N_interactions_lost>  (99) 
3

>  <∆∆G>  (99) 
-8.706733

>  <comRMSD>  (99) 
0.647915

>  <N_rotatable_bonds>  (99) 
6

>  <N_unconstrained_atoms>  (99) 
0

>  <N_constrained_atoms>  (99) 
16

>  <price>  (99) 
0

$$$$
Z1432433546
     RDKit          3D

 18 19  0  0  0  0  0  0  0  0999 V2000
   11.5970   14.6160   19.4340 C   0  0  0  0  0  0  0  0  0  0  0  0
   11.8650   14.5840   20.9110 C   0  0  0  0  0  0  0  0  0  0  0  0
   12.8030   15.6680   21.3100 C   0  0  0  0  0  0  0  0  0  0  0  0
   10.6370   14.8240   21.7380 C   0  0  1  0  0  0  0  0  0  0  0  0
    9.6060   15.5810   20.9130 C   0  0  0  0  0  0  0  0  0  0  0  0
   10.0350   13.9060   22.2360 O   0  0  0  0  0  0  0  0  0  0  0  0
   10.4840   13.4510   23.4360 C   0  0  0  0  0  0  0  0  0  0  0  0
   11.2940   14.0190   24.1610 O   0  0  0  0  0  0  0  0  0  0  0  0
    9.8120   12.1300   23.7510 C   0  0  0  0  0  0  0  0  0  0  0  0
   10.1310   10.7550   23.2180 C   0  0  0  0  0  0  0  0  0  0  0  0
    9.2170    9.8930   23.8060 N   0  0  0  0  0  0  0  0  0  0  0  0
    9.1880    8.4770   23.5400 C   0  0  0  0  0  0  0  0  0  0  0  0
    8.3270   10.5420   24.6860 C   0  0  0  0  0  0  0  0  0  0  0  0
    7.1750    9.9720   25.5500 C   0  0  0  0  0  0  0  0  0  0  0  0
    6.4390   11.0920   26.3790 C   0  0  0  0  0  0  0  0  0  0  0  0
    7.0280   12.5220   26.1570 C   0  0  0  0  0  0  0  0  0  0  0  0
    8.0870   12.8540   25.3340 C   0  0  0  0  0  0  0  0  0  0  0  0
    8.6600   11.8460   24.6600 C   0  0  0  0  0  0  0  0  0  0  0  0
  1  2  1  0
  2  3  1  0
  2  4  1  0
  4  5  1  6
  4  6  1  0
  6  7  1  0
  7  8  2  0
  7  9  1  0
  9 10  2  0
 10 11  1  0
 11 12  1  0
 11 13  1  0
 13 14  2  0
 14 15  1  0
 15 16  2  0
 16 17  1  0
 17 18  2  0
 18  9  1  0
 18 13  1  0
A    1
 C1 
A    2
 C2 
A    3
 C3 
A    4
 C4 
A    5
 C5 
A    6
 O1 
A    7
 C6 
A    8
 O2 
A    9
 C7 
A   10
 C8 
A   11
 N1 
A   12
 C9 
A   13
 C10
A   14
 C11
A   15
 C12
A   16
 C13
A   17
 C14
A   18
 C15
M  END
>  <ref_pdb>  (100) 
x0554_0A

>  <ref_mols>  (100) 
x0451_0A

>  <original SMILES>  (100) 
CC(C)C(C)OC(=O)c1cn(C)c2ccccc12

>  <rationale>  (100) 
info cluster #4 (rank 10); hydroph_interaction:Y89+Y90; saltbridge:H21; 

>  <cluster_rank>  (100) 
10

>  <N_interactions>  (100) 
3

>  <N_interactions_lost>  (100) 
0

>  <∆∆G>  (100) 
-9.759593

>  <comRMSD>  (100) 
0.942845

>  <N_rotatable_bonds>  (100) 
7

>  <N_unconstrained_atoms>  (100) 
3

>  <N_constrained_atoms>  (100) 
17

>  <price>  (100) 
0

$$$$
Z4060550902
     RDKit          3D

 16 16  0  0  0  0  0  0  0  0999 V2000
   10.1740    9.0020   22.9420 C   0  0  0  0  0  0  0  0  0  0  0  0
    9.3320   10.0230   23.6850 C   0  0  0  0  0  0  0  0  0  0  0  0
    8.2850    9.4530   24.5300 N   0  0  0  0  0  0  0  0  0  0  0  0
    7.7260   10.5650   25.0380 N   0  0  0  0  0  0  0  0  0  0  0  0
    6.6190   10.4330   25.9550 C   0  0  0  0  0  0  0  0  0  0  0  0
    8.3110   11.7710   24.6020 C   0  0  0  0  0  0  0  0  0  0  0  0
    7.8290   12.9610   25.0490 N   0  0  0  0  0  0  0  0  0  0  0  0
    8.5730   14.2080   24.8680 C   0  0  0  0  0  0  0  0  0  0  0  0
    8.0960   14.8540   23.7330 C   0  0  0  0  0  0  0  0  0  0  0  0
    8.8330   14.4380   22.5650 N   0  0  0  0  0  0  0  0  0  0  0  0
   10.0010   15.0640   22.2180 C   0  0  0  0  0  0  0  0  0  0  0  0
   10.9080   15.3180   23.0080 O   0  0  0  0  0  0  0  0  0  0  0  0
   10.0660   15.4550   20.7540 C   0  0  2  0  0  0  0  0  0  0  0  0
   11.2140   14.8300   20.0180 C   0  0  0  0  0  0  0  0  0  0  0  0
   10.1420   16.9290   20.6480 N   0  0  0  0  0  0  0  0  0  0  0  0
    9.3390   11.4260   23.7360 C   0  0  0  0  0  0  0  0  0  0  0  0
  1  2  1  0
  2  3  2  0
  3  4  1  0
  4  5  1  0
  4  6  1  0
  6  7  1  0
  7  8  1  0
  8  9  1  0
  9 10  1  0
 10 11  1  0
 11 12  2  0
 11 13  1  0
 13 14  1  1
 13 15  1  0
  6 16  2  0
 16  2  1  0
A    1
 C1 
A    2
 C2 
A    3
 N1 
A    4
 N2 
A    5
 C3 
A    6
 C4 
A    7
 N3 
A    8
 C5 
A    9
 C6 
A   10
 N4 
A   11
 C7 
A   12
 O1 
A   13
 C8 
A   14
 C9 
A   15
 N5 
A   16
 C10
M  END
>  <ref_pdb>  (101) 
x0554_0A

>  <ref_mols>  (101) 
x0310_0A

>  <original SMILES>  (101) 
Cc1cc(NCCNC(=O)[C@H](C)N)n(C)n1

>  <rationale>  (101) 
info cluster #9 (rank 10); hbond:S87+G127+T126; hydroph_interaction:V124; 

>  <cluster_rank>  (101) 
10

>  <N_interactions>  (101) 
5

>  <N_interactions_lost>  (101) 
1

>  <∆∆G>  (101) 
-9.433151

>  <comRMSD>  (101) 
0.441141

>  <N_rotatable_bonds>  (101) 
9

>  <N_unconstrained_atoms>  (101) 
3

>  <N_constrained_atoms>  (101) 
13

>  <price>  (101) 
0

$$$$
Z56827897
     RDKit          3D

 12 12  0  0  0  0  0  0  0  0999 V2000
   11.8970   14.4030   22.3310 C   0  0  0  0  0  0  0  0  0  0  0  0
   11.2320   13.5740   23.4340 C   0  0  0  0  0  0  0  0  0  0  0  0
   11.2290   13.9640   24.5940 O   0  0  0  0  0  0  0  0  0  0  0  0
   10.6840   12.4030   22.9560 N   0  0  0  0  0  0  0  0  0  0  0  0
    9.7820   11.4950   23.5780 C   0  0  0  0  0  0  0  0  0  0  0  0
    9.7650   10.1110   23.2470 C   0  0  0  0  0  0  0  0  0  0  0  0
    8.9180    9.2420   23.8100 C   0  0  0  0  0  0  0  0  0  0  0  0
    8.8930    7.8060   23.4380 C   0  0  0  0  0  0  0  0  0  0  0  0
    8.0170    9.7010   24.7790 C   0  0  0  0  0  0  0  0  0  0  0  0
    7.9820   11.0300   25.1410 C   0  0  0  0  0  0  0  0  0  0  0  0
    8.8510   11.9310   24.5450 C   0  0  0  0  0  0  0  0  0  0  0  0
    8.6950   13.7350   25.1030 Br  0  0  0  0  0  0  0  0  0  0  0  0
  1  2  1  0
  2  3  2  0
  2  4  1  0
  4  5  1  0
  5  6  2  0
  6  7  1  0
  7  8  1  0
  7  9  2  0
  9 10  1  0
 10 11  2  0
 11 12  1  0
 11  5  1  0
A    1
 C1 
A    2
 C2 
A    3
 O1 
A    4
 N1 
A    5
 C3 
A    6
 C4 
A    7
 C5 
A    8
 C6 
A    9
 C7 
A   10
 C8 
A   11
 C9 
A   12
BR1 
M  END
>  <ref_pdb>  (102) 
x0554_0A

>  <ref_mols>  (102) 
x0554_0A,x0310_0A

>  <original SMILES>  (102) 
CC(=O)Nc1cc(C)ccc1Br

>  <rationale>  (102) 
info cluster #8 (rank 11); hbond:S125; hydroph_interaction:Y89+D109+V124; 

>  <cluster_rank>  (102) 
11

>  <N_interactions>  (102) 
4

>  <N_interactions_lost>  (102) 
2

>  <∆∆G>  (102) 
-8.147094

>  <comRMSD>  (102) 
0.616398

>  <N_rotatable_bonds>  (102) 
3

>  <N_unconstrained_atoms>  (102) 
1

>  <N_constrained_atoms>  (102) 
13

>  <price>  (102) 
0

$$$$
Z1310947600
     RDKit          3D

 12 12  0  0  0  0  0  0  0  0999 V2000
   11.8520   14.1970   22.4230 C   0  0  0  0  0  0  0  0  0  0  0  0
   11.1050   13.4070   23.4730 C   0  0  0  0  0  0  0  0  0  0  0  0
   10.9620   13.8320   24.6120 O   0  0  0  0  0  0  0  0  0  0  0  0
   10.6110   12.1940   23.0370 N   0  0  0  0  0  0  0  0  0  0  0  0
    9.5600   11.4290   23.7530 C   0  0  0  0  0  0  0  0  0  0  0  0
    9.6380    9.9120   23.7240 C   0  0  0  0  0  0  0  0  0  0  0  0
   10.7540    9.2380   22.9950 C   0  0  0  0  0  0  0  0  0  0  0  0
    8.6810    9.1450   24.3780 C   0  0  0  0  0  0  0  0  0  0  0  0
    7.5610    9.8600   25.1220 C   0  0  0  0  0  0  0  0  0  0  0  0
    7.5190   11.2650   25.1280 C   0  0  0  0  0  0  0  0  0  0  0  0
    8.4910   12.0300   24.4590 C   0  0  0  0  0  0  0  0  0  0  0  0
    8.3010   13.7450   24.5500 Cl  0  0  0  0  0  0  0  0  0  0  0  0
  1  2  1  0
  2  3  2  0
  2  4  1  0
  4  5  1  0
  5  6  2  0
  6  7  1  0
  6  8  1  0
  8  9  2  0
  9 10  1  0
 10 11  2  0
 11 12  1  0
 11  5  1  0
A    1
 C1 
A    2
 C2 
A    3
 O1 
A    4
 N1 
A    5
 C3 
A    6
 C4 
A    7
 C5 
A    8
 C6 
A    9
 C7 
A   10
 C8 
A   11
 C9 
A   12
CL1 
M  END
>  <ref_pdb>  (103) 
x0554_0A

>  <ref_mols>  (103) 
x0554_0A,x0310_0A

>  <original SMILES>  (103) 
CC(=O)Nc1c(C)cccc1Cl

>  <rationale>  (103) 
info cluster #5 (rank 11); hbond:S125; hydroph_interaction:Y89+A110+V124; 

>  <cluster_rank>  (103) 
11

>  <N_interactions>  (103) 
4

>  <N_interactions_lost>  (103) 
2

>  <∆∆G>  (103) 
-8.119739

>  <comRMSD>  (103) 
0.706487

>  <N_rotatable_bonds>  (103) 
3

>  <N_unconstrained_atoms>  (103) 
1

>  <N_constrained_atoms>  (103) 
13

>  <price>  (103) 
0

$$$$
Z4231723121
     RDKit          3D

 16 17  0  0  0  0  0  0  0  0999 V2000
    9.4310   15.5290   20.3930 C   0  0  0  0  0  0  0  0  0  0  0  0
   10.6820   14.6940   20.3660 C   0  0  0  0  0  0  0  0  0  0  0  0
   11.3480   14.7830   21.6930 C   0  0  2  0  0  0  0  0  0  0  0  0
   12.6640   15.4580   21.4360 C   0  0  0  0  0  0  0  0  0  0  0  0
   11.4590   13.5710   22.3330 N   0  0  0  0  0  0  0  0  0  0  0  0
   10.6690   13.5640   23.5430 C   0  0  0  0  0  0  0  0  0  0  0  0
    9.9140   12.2690   23.8350 C   0  0  0  0  0  0  0  0  0  0  0  0
   10.2690   10.9230   23.2510 C   0  0  0  0  0  0  0  0  0  0  0  0
    9.3880    9.9970   23.7360 N   0  0  0  0  0  0  0  0  0  0  0  0
    9.3630    8.5870   23.4360 C   0  0  0  0  0  0  0  0  0  0  0  0
    8.5190   10.6610   24.5800 C   0  0  0  0  0  0  0  0  0  0  0  0
    7.4420   10.0400   25.3060 C   0  0  0  0  0  0  0  0  0  0  0  0
    6.5770   10.7060   26.1380 C   0  0  0  0  0  0  0  0  0  0  0  0
    6.7300   12.0790   26.3110 C   0  0  0  0  0  0  0  0  0  0  0  0
    7.8590   12.8400   25.5810 C   0  0  0  0  0  0  0  0  0  0  0  0
    8.7870   12.0210   24.6670 C   0  0  0  0  0  0  0  0  0  0  0  0
  1  2  1  0
  2  3  1  0
  3  4  1  6
  3  5  1  0
  5  6  1  0
  6  7  1  0
  7  8  2  0
  8  9  1  0
  9 10  1  0
  9 11  1  0
 11 12  2  0
 12 13  1  0
 13 14  2  0
 14 15  1  0
 15 16  2  0
 16  7  1  0
 16 11  1  0
A    1
 C1 
A    2
 C2 
A    3
 C3 
A    4
 C4 
A    5
 N1 
A    6
 C5 
A    7
 C6 
A    8
 C7 
A    9
 N2 
A   10
 C8 
A   11
 C9 
A   12
 C10
A   13
 C11
A   14
 C12
A   15
 C13
A   16
 C14
M  END
>  <ref_pdb>  (104) 
x0554_0A

>  <ref_mols>  (104) 
x0451_0A

>  <original SMILES>  (104) 
CC[C@H](C)NCc1cn(C)c2ccccc12

>  <rationale>  (104) 
info cluster #2 (rank 11); hbond:H21; hydroph_interaction:Y89+Y90+V84; 

>  <cluster_rank>  (104) 
11

>  <N_interactions>  (104) 
4

>  <N_interactions_lost>  (104) 
0

>  <∆∆G>  (104) 
-8.110846

>  <comRMSD>  (104) 
0.753948

>  <N_rotatable_bonds>  (104) 
7

>  <N_unconstrained_atoms>  (104) 
1

>  <N_constrained_atoms>  (104) 
19

>  <price>  (104) 
0

$$$$
PV_002885158418
     RDKit          3D

 13 13  0  0  0  0  0  0  0  0999 V2000
   12.0580   14.8620   21.9420 C   0  0  0  0  0  0  0  0  0  0  0  0
   11.0760   13.8290   22.1840 N   0  0  0  0  0  0  0  0  0  0  0  0
   10.5340   13.6720   23.4470 C   0  0  0  0  0  0  0  0  0  0  0  0
   10.4710   14.5710   24.2750 O   0  0  0  0  0  0  0  0  0  0  0  0
   10.0020   12.2520   23.7380 C   0  0  0  0  0  0  0  0  0  0  0  0
    8.8390   12.3600   24.6900 C   0  0  0  0  0  0  0  0  0  0  0  0
    8.5430   10.8270   24.7580 C   0  0  0  0  0  0  0  0  0  0  0  0
    7.4210   10.4990   25.6340 C   0  0  0  0  0  0  0  0  0  0  0  0
    9.4050   10.0060   23.9610 C   0  0  0  0  0  0  0  0  0  0  0  0
    9.5150    8.5300   23.6830 C   0  0  0  0  0  0  0  0  0  0  0  0
    8.6870    7.6480   23.8340 O   0  0  0  0  0  0  0  0  0  0  0  0
   10.7300    8.2280   23.1940 O   0  0  0  0  0  0  0  0  0  0  0  0
   10.6140   10.8460   23.1000 S   0  0  0  0  0  0  0  0  0  0  0  0
  1  2  1  0
  2  3  1  0
  3  4  2  0
  3  5  1  0
  5  6  2  0
  6  7  1  0
  7  8  1  0
  7  9  2  0
  9 10  1  0
 10 11  2  0
 10 12  1  0
  9 13  1  0
 13  5  1  0
A    1
 C1 
A    2
 N1 
A    3
 C2 
A    4
 O1 
A    5
 C3 
A    6
 C4 
A    7
 C5 
A    8
 C6 
A    9
 C7 
A   10
 C8 
A   11
 O2 
A   12
 O3 
A   13
 S1 
M  END
>  <ref_pdb>  (105) 
x0554_0A

>  <ref_mols>  (105) 
x0451_0A,x0556_0A

>  <original SMILES>  (105) 
CNC(=O)c1cc(C)c(C(=O)O)s1

>  <rationale>  (105) 
info cluster #0 (rank 11); hbond:S105+S125+D109+E106; 

>  <cluster_rank>  (105) 
11

>  <N_interactions>  (105) 
4

>  <N_interactions_lost>  (105) 
1

>  <∆∆G>  (105) 
-5.414938

>  <comRMSD>  (105) 
0.747749

>  <N_rotatable_bonds>  (105) 
4

>  <N_unconstrained_atoms>  (105) 
2

>  <N_constrained_atoms>  (105) 
13

>  <price>  (105) 
0

$$$$
PV_007056404006
     RDKit          3D

 16 17  0  0  0  0  0  0  0  0999 V2000
   12.1720   14.8400   21.5660 C   0  0  0  0  0  0  0  0  0  0  0  0
   11.5960   13.6560   22.1950 N   0  0  0  0  0  0  0  0  0  0  0  0
   10.1870   13.9010   23.0800 S   0  0  0  0  0  6  0  0  0  0  0  0
   10.5150   14.6440   24.2730 O   0  0  0  0  0  0  0  0  0  0  0  0
    9.1520   14.3070   22.1440 O   0  0  0  0  0  0  0  0  0  0  0  0
    9.5650   12.4060   23.6640 C   0  0  0  0  0  0  0  0  0  0  0  0
    9.9240   11.0340   23.3580 C   0  0  0  0  0  0  0  0  0  0  0  0
    9.2440   10.0820   23.9530 N   0  0  0  0  0  0  0  0  0  0  0  0
    9.4580    8.7480   23.7490 C   0  0  0  0  0  0  0  0  0  0  0  0
    8.3230   10.8560   24.7730 C   0  0  0  0  0  0  0  0  0  0  0  0
    7.3680   10.3150   25.6180 C   0  0  0  0  0  0  0  0  0  0  0  0
    6.5330   11.1620   26.3370 C   0  0  0  0  0  0  0  0  0  0  0  0
    5.1890   10.5040   27.4900 Br  0  0  0  0  0  0  0  0  0  0  0  0
    6.6870   12.5390   26.2000 C   0  0  0  0  0  0  0  0  0  0  0  0
    7.6630   13.0900   25.3460 C   0  0  0  0  0  0  0  0  0  0  0  0
    8.5060   12.2310   24.6050 C   0  0  0  0  0  0  0  0  0  0  0  0
  1  2  1  0
  2  3  1  0
  3  4  2  0
  3  5  2  0
  3  6  1  0
  6  7  2  0
  7  8  1  0
  8  9  1  0
  8 10  1  0
 10 11  2  0
 11 12  1  0
 12 13  1  0
 12 14  2  0
 14 15  1  0
 15 16  2  0
 16  6  1  0
 16 10  1  0
A    1
 C1 
A    2
 N1 
A    3
 S1 
A    4
 O1 
A    5
 O2 
A    6
 C2 
A    7
 C3 
A    8
 N2 
A    9
 C4 
A   10
 C5 
A   11
 C6 
A   12
 C7 
A   13
BR1 
A   14
 C8 
A   15
 C9 
A   16
 C10
M  END
>  <ref_pdb>  (106) 
x0554_0A

>  <ref_mols>  (106) 
x0451_0A,x0566_0A

>  <original SMILES>  (106) 
CNS(=O)(=O)c1cn(C)c2cc(Br)ccc12

>  <rationale>  (106) 
info cluster #6 (rank 11); hbond:H21; 

>  <cluster_rank>  (106) 
11

>  <N_interactions>  (106) 
1

>  <N_interactions_lost>  (106) 
0

>  <∆∆G>  (106) 
-9.218897

>  <comRMSD>  (106) 
0.566661

>  <N_rotatable_bonds>  (106) 
4

>  <N_unconstrained_atoms>  (106) 
1

>  <N_constrained_atoms>  (106) 
15

>  <price>  (106) 
0

$$$$
Z1556059446
     RDKit          3D

 13 13  0  0  0  0  0  0  0  0999 V2000
   11.9470   14.7330   21.6240 C   0  0  0  0  0  0  0  0  0  0  0  0
   10.8880   13.8430   22.0550 N   0  0  0  0  0  0  0  0  0  0  0  0
   10.5570   13.8540   23.7280 S   0  0  0  0  0  6  0  0  0  0  0  0
    9.8210   15.0420   24.0370 O   0  0  0  0  0  0  0  0  0  0  0  0
   11.8680   13.6170   24.3080 O   0  0  0  0  0  0  0  0  0  0  0  0
    9.5670   12.4590   24.1410 C   0  0  0  0  0  0  0  0  0  0  0  0
    9.9800   11.2280   23.7270 C   0  0  0  0  0  0  0  0  0  0  0  0
    9.2700   10.0330   24.0290 C   0  0  0  0  0  0  0  0  0  0  0  0
    9.7530    8.7120   23.5500 C   0  0  0  0  0  0  0  0  0  0  0  0
    8.1270   10.2230   24.7900 C   0  0  0  0  0  0  0  0  0  0  0  0
    7.6750   11.4220   25.2080 N   0  0  0  0  0  0  0  0  0  0  0  0
    8.3730   12.5320   24.8890 C   0  0  0  0  0  0  0  0  0  0  0  0
    7.7790   13.6840   25.3860 N   0  0  0  0  0  0  0  0  0  0  0  0
  1  2  1  0
  2  3  1  0
  3  4  2  0
  3  5  2  0
  3  6  1  0
  6  7  2  0
  7  8  1  0
  8  9  1  0
  8 10  2  0
 10 11  1  0
 11 12  2  0
 12 13  1  0
 12  6  1  0
A    1
 C1 
A    2
 N1 
A    3
 S1 
A    4
 O1 
A    5
 O2 
A    6
 C2 
A    7
 C3 
A    8
 C4 
A    9
 C5 
A   10
 C6 
A   11
 N2 
A   12
 C7 
A   13
 N3 
M  END
>  <ref_pdb>  (107) 
x0554_0A

>  <ref_mols>  (107) 
x0416_0A,x0451_0A

>  <original SMILES>  (107) 
CNS(=O)(=O)c1cc(C)cnc1N

>  <rationale>  (107) 
info cluster #7 (rank 11); hbond:S87+S125; hydroph_interaction:D109+V124; 

>  <cluster_rank>  (107) 
11

>  <N_interactions>  (107) 
4

>  <N_interactions_lost>  (107) 
1

>  <∆∆G>  (107) 
-7.497834

>  <comRMSD>  (107) 
0.74656

>  <N_rotatable_bonds>  (107) 
5

>  <N_unconstrained_atoms>  (107) 
1

>  <N_constrained_atoms>  (107) 
14

>  <price>  (107) 
0

$$$$
PV_006066664280
     RDKit          3D

 15 16  0  0  0  0  0  0  0  0999 V2000
   10.7450   14.4220   20.3410 N   0  0  0  0  0  0  0  0  0  0  0  0
    9.8920   14.8860   21.1880 C   0  0  0  0  0  0  0  0  0  0  0  0
    9.5740   16.1940   21.1270 N   0  0  0  0  0  0  0  0  0  0  0  0
    9.3210   14.0460   22.1230 N   0  0  0  0  0  0  0  0  0  0  0  0
   10.0890   13.2980   23.0270 C   0  0  0  0  0  0  0  0  0  0  0  0
   11.2390   13.6020   23.3210 O   0  0  0  0  0  0  0  0  0  0  0  0
    9.5150   12.0710   23.6680 C   0  0  0  0  0  0  0  0  0  0  0  0
   10.0550   10.8080   23.3390 C   0  0  0  0  0  0  0  0  0  0  0  0
    9.5690    9.6460   23.9220 C   0  0  0  0  0  0  0  0  0  0  0  0
    8.5340    9.7050   24.8500 C   0  0  0  0  0  0  0  0  0  0  0  0
    7.9710   10.9360   25.1940 C   0  0  0  0  0  0  0  0  0  0  0  0
    8.4620   12.0970   24.6050 C   0  0  0  0  0  0  0  0  0  0  0  0
    7.7140   13.1110   25.1500 N   0  0  0  0  0  0  0  0  0  0  0  0
    6.7850   12.6960   26.0330 N   0  0  0  0  0  0  0  0  0  0  0  0
    6.9440   11.3720   26.0590 C   0  0  0  0  0  0  0  0  0  0  0  0
  1  2  2  3
  2  3  1  0
  2  4  1  0
  4  5  1  0
  5  6  2  0
  5  7  1  0
  7  8  2  0
  8  9  1  0
  9 10  2  0
 10 11  1  0
 11 12  2  0
 12 13  1  0
 13 14  1  0
 14 15  2  0
 12  7  1  0
 15 11  1  0
A    1
 N1 
A    2
 C1 
A    3
 N2 
A    4
 N3 
A    5
 C2 
A    6
 O1 
A    7
 C3 
A    8
 C4 
A    9
 C5 
A   10
 C6 
A   11
 C7 
A   12
 C8 
A   13
 N4 
A   14
 N5 
A   15
 C9 
M  END
>  <ref_pdb>  (108) 
x0554_0A

>  <ref_mols>  (108) 
x0566_0A

>  <original SMILES>  (108) 
N=C(N)NC(=O)c1cccc2cn[nH]c12

>  <rationale>  (108) 
info cluster #3 (rank 11); hbond:S87+S125; 

>  <cluster_rank>  (108) 
11

>  <N_interactions>  (108) 
2

>  <N_interactions_lost>  (108) 
1

>  <∆∆G>  (108) 
-4.300701

>  <comRMSD>  (108) 
0.503111

>  <N_rotatable_bonds>  (108) 
1

>  <N_unconstrained_atoms>  (108) 
0

>  <N_constrained_atoms>  (108) 
15

>  <price>  (108) 
0

$$$$
Z3510522343
     RDKit          3D

 17 18  0  0  0  0  0  0  0  0999 V2000
    9.1430   16.1700   20.5910 C   0  0  0  0  0  0  0  0  0  0  0  0
   10.1410   15.4330   21.4370 C   0  0  2  0  0  0  0  0  0  0  0  0
   11.3220   14.9430   20.5880 C   0  0  0  0  0  0  0  0  0  0  0  0
   10.9800   14.2100   19.3860 N   0  0  0  0  0  0  0  0  0  0  0  0
    9.4590   14.3070   22.1080 N   0  0  0  0  0  0  0  0  0  0  0  0
   10.3620   13.5040   23.2640 S   0  0  0  0  0  6  0  0  0  0  0  0
   10.3330   14.3690   24.4190 O   0  0  0  0  0  0  0  0  0  0  0  0
   11.5960   13.0640   22.6760 O   0  0  0  0  0  0  0  0  0  0  0  0
    9.6130   12.0710   23.8310 C   0  0  0  0  0  0  0  0  0  0  0  0
    9.9210   10.6380   23.4940 C   0  0  0  0  0  0  0  0  0  0  0  0
    9.0820    9.8400   24.1910 N   0  0  0  0  0  0  0  0  0  0  0  0
    8.2380   10.6410   24.9660 C   0  0  0  0  0  0  0  0  0  0  0  0
    7.1770   10.2590   25.8850 C   0  0  0  0  0  0  0  0  0  0  0  0
    6.4440   11.1800   26.5560 C   0  0  0  0  0  0  0  0  0  0  0  0
    6.7910   12.6450   26.3080 C   0  0  0  0  0  0  0  0  0  0  0  0
    7.8210   13.0120   25.4260 C   0  0  0  0  0  0  0  0  0  0  0  0
    8.5460   12.0140   24.7530 C   0  0  0  0  0  0  0  0  0  0  0  0
  2  1  1  6
  2  3  1  0
  3  4  1  0
  2  5  1  0
  5  6  1  0
  6  7  2  0
  6  8  2  0
  6  9  1  0
  9 10  2  0
 10 11  1  0
 11 12  1  0
 12 13  2  0
 13 14  1  0
 14 15  2  0
 15 16  1  0
 16 17  2  0
 17  9  1  0
 17 12  1  0
A    1
 C1 
A    2
 C2 
A    3
 C3 
A    4
 N1 
A    5
 N2 
A    6
 S1 
A    7
 O1 
A    8
 O2 
A    9
 C4 
A   10
 C5 
A   11
 N3 
A   12
 C6 
A   13
 C7 
A   14
 C8 
A   15
 C9 
A   16
 C10
A   17
 C11
M  END
>  <ref_pdb>  (109) 
x0554_0A

>  <ref_mols>  (109) 
x0451_0A,x0566_0A

>  <original SMILES>  (109) 
C[C@H](CN)NS(=O)(=O)c1c[nH]c2ccccc12

>  <rationale>  (109) 
info cluster #1 (rank 11); hbond:T126+D39; hydroph_interaction:V84; 

>  <cluster_rank>  (109) 
11

>  <N_interactions>  (109) 
3

>  <N_interactions_lost>  (109) 
0

>  <∆∆G>  (109) 
-7.141599

>  <comRMSD>  (109) 
0.83369

>  <N_rotatable_bonds>  (109) 
6

>  <N_unconstrained_atoms>  (109) 
2

>  <N_constrained_atoms>  (109) 
17

>  <price>  (109) 
0

$$$$
Z4489457264
     RDKit          3D

 21 22  0  0  0  0  0  0  0  0999 V2000
   12.2660   15.5820   21.2380 C   0  0  0  0  0  0  0  0  0  0  0  0
   12.0450   14.3190   22.0430 C   0  0  0  0  0  0  0  0  0  0  0  0
   10.6870   14.2150   22.4940 O   0  0  0  0  0  0  0  0  0  0  0  0
   10.5500   13.7590   23.7700 C   0  0  0  0  0  0  0  0  0  0  0  0
   10.8720   14.3980   24.7630 O   0  0  0  0  0  0  0  0  0  0  0  0
    9.9760   12.4210   23.8610 C   0  0  0  0  0  0  0  0  0  0  0  0
   10.4870   11.1410   23.3040 C   0  0  0  0  0  0  0  0  0  0  0  0
    9.6580   10.1250   23.6120 N   0  0  0  0  0  0  0  0  0  0  0  0
    9.8160    8.7440   23.2460 C   0  0  0  0  0  0  0  0  0  0  0  0
    8.6120   10.6360   24.3470 C   0  0  0  0  0  0  0  0  0  0  0  0
    8.7700   12.0140   24.5120 C   0  0  0  0  0  0  0  0  0  0  0  0
    7.9090   12.8460   25.1890 N   0  0  0  0  0  0  0  0  0  0  0  0
    6.7890   12.3840   25.8360 C   0  0  0  0  0  0  0  0  0  0  0  0
    6.5190   11.2260   26.1020 O   0  0  0  0  0  0  0  0  0  0  0  0
    5.8070   13.4890   26.2560 C   0  0  0  0  0  0  0  0  0  0  0  0
    5.5970   14.4560   25.5360 O   0  0  0  0  0  0  0  0  0  0  0  0
    5.1530   13.2890   27.5990 C   0  0  0  0  0  0  0  0  0  0  0  0
    6.0310   12.4410   28.4910 C   0  0  0  0  0  0  0  0  0  0  0  0
    5.0910   12.1140   29.6390 C   0  0  0  0  0  0  0  0  0  0  0  0
    3.7040   12.0220   28.9970 C   0  0  0  0  0  0  0  0  0  0  0  0
    3.8760   12.4660   27.5500 C   0  0  0  0  0  0  0  0  0  0  0  0
  1  2  1  0
  2  3  1  0
  3  4  1  0
  4  5  2  0
  4  6  1  0
  6  7  2  0
  7  8  1  0
  8  9  1  0
  8 10  1  0
 10 11  2  0
 11 12  1  0
 12 13  1  0
 13 14  2  0
 13 15  1  0
 15 16  2  0
 15 17  1  0
 17 18  1  0
 18 19  1  0
 19 20  1  0
 20 21  1  0
 11  6  1  0
 21 17  1  0
A    1
 C1 
A    2
 C2 
A    3
 O1 
A    4
 C3 
A    5
 O2 
A    6
 C4 
A    7
 C5 
A    8
 N1 
A    9
 C6 
A   10
 C7 
A   11
 C8 
A   12
 N2 
A   13
 C9 
A   14
 O3 
A   15
 C10
A   16
 O4 
A   17
 C11
A   18
 C12
A   19
 C13
A   20
 C14
A   21
 C15
M  END
>  <ref_pdb>  (110) 
x0554_0A

>  <ref_mols>  (110) 
x0451_0A,x0416_0A,x0554_0A

>  <original SMILES>  (110) 
CCOC(=O)c1cn(C)cc1NC(=O)C(=O)C1CCCC1

>  <rationale>  (110) 
info cluster #4 (rank 11); hydroph_interaction:Y89+P107+Y90; saltbridge:H21; 

>  <cluster_rank>  (110) 
11

>  <N_interactions>  (110) 
4

>  <N_interactions_lost>  (110) 
1

>  <∆∆G>  (110) 
-7.265428

>  <comRMSD>  (110) 
0.732127

>  <N_rotatable_bonds>  (110) 
7

>  <N_unconstrained_atoms>  (110) 
2

>  <N_constrained_atoms>  (110) 
21

>  <price>  (110) 
0

$$$$
Z2448163075
     RDKit          3D

 15 15  0  0  0  0  0  0  0  0999 V2000
   10.2370    9.0540   22.9630 C   0  0  0  0  0  0  0  0  0  0  0  0
    9.4440   10.1000   23.7370 C   0  0  0  0  0  0  0  0  0  0  0  0
    8.3670    9.6010   24.4450 N   0  0  0  0  0  0  0  0  0  0  0  0
    7.8570   10.6980   25.0200 N   0  0  0  0  0  0  0  0  0  0  0  0
    6.7630   10.5280   25.8210 C   0  0  0  0  0  0  0  0  0  0  0  0
    8.5510   11.8930   24.7080 C   0  0  0  0  0  0  0  0  0  0  0  0
    8.1470   13.2620   25.2370 C   0  0  0  0  0  0  0  0  0  0  0  0
    9.5980   11.5130   23.8800 C   0  0  0  0  0  0  0  0  0  0  0  0
   10.6420   12.5120   23.3100 C   0  0  0  0  0  0  0  0  0  0  0  0
    9.9190   13.6120   22.6790 N   0  0  0  0  0  0  0  0  0  0  0  0
   10.4130   14.8750   22.4010 C   0  0  0  0  0  0  0  0  0  0  0  0
   11.0000   15.5980   23.2120 O   0  0  0  0  0  0  0  0  0  0  0  0
   10.1180   15.3070   20.9680 C   0  0  2  0  0  0  0  0  0  0  0  0
   11.1300   14.8140   19.8820 C   0  0  0  0  0  0  0  0  0  0  0  0
    9.9890   16.7810   20.8760 N   0  0  0  0  0  0  0  0  0  0  0  0
  1  2  1  0
  2  3  2  0
  3  4  1  0
  4  5  1  0
  4  6  1  0
  6  7  1  0
  6  8  2  0
  8  9  1  0
  9 10  1  0
 10 11  1  0
 11 12  2  0
 11 13  1  0
 13 14  1  6
 13 15  1  0
  8  2  1  0
A    1
 C1 
A    2
 C2 
A    3
 N1 
A    4
 N2 
A    5
 C3 
A    6
 C4 
A    7
 C5 
A    8
 C6 
A    9
 C7 
A   10
 N3 
A   11
 C8 
A   12
 O1 
A   13
 C9 
A   14
 C10
A   15
 N4 
M  END
>  <ref_pdb>  (111) 
x0554_0A

>  <ref_mols>  (111) 
x0310_0A

>  <original SMILES>  (111) 
Cc1nn(C)c(C)c1CNC(=O)[C@H](C)N

>  <rationale>  (111) 
info cluster #9 (rank 11); hbond:S87+T126; hydroph_interaction:V124; 

>  <cluster_rank>  (111) 
11

>  <N_interactions>  (111) 
4

>  <N_interactions_lost>  (111) 
1

>  <∆∆G>  (111) 
-9.205564

>  <comRMSD>  (111) 
0.725247

>  <N_rotatable_bonds>  (111) 
8

>  <N_unconstrained_atoms>  (111) 
1

>  <N_constrained_atoms>  (111) 
15

>  <price>  (111) 
0

$$$$
Z276567178
     RDKit          3D

 12 12  0  0  0  0  0  0  0  0999 V2000
   11.9010   14.4090   22.3350 C   0  0  0  0  0  0  0  0  0  0  0  0
   11.2280   13.5850   23.4290 C   0  0  0  0  0  0  0  0  0  0  0  0
   11.1890   13.9870   24.5870 O   0  0  0  0  0  0  0  0  0  0  0  0
   10.7060   12.4000   22.9560 N   0  0  0  0  0  0  0  0  0  0  0  0
    9.8030   11.4890   23.5620 C   0  0  0  0  0  0  0  0  0  0  0  0
    9.7970   10.1390   23.2210 C   0  0  0  0  0  0  0  0  0  0  0  0
    8.8000    9.2190   23.8860 C   0  0  0  0  0  0  0  0  0  0  0  0
    8.8560    7.7730   23.4280 C   0  0  0  0  0  0  0  0  0  0  0  0
    7.9180    9.7200   24.8350 C   0  0  0  0  0  0  0  0  0  0  0  0
    7.9470   11.0640   25.1520 C   0  0  0  0  0  0  0  0  0  0  0  0
    8.8610   11.9290   24.5290 C   0  0  0  0  0  0  0  0  0  0  0  0
    8.7550   13.5840   25.0170 Cl  0  0  0  0  0  0  0  0  0  0  0  0
  1  2  1  0
  2  3  2  0
  2  4  1  0
  4  5  1  0
  5  6  2  0
  6  7  1  0
  7  8  1  0
  7  9  2  0
  9 10  1  0
 10 11  2  0
 11 12  1  0
 11  5  1  0
A    1
 C1 
A    2
 C2 
A    3
 O1 
A    4
 N1 
A    5
 C3 
A    6
 C4 
A    7
 C5 
A    8
 C6 
A    9
 C7 
A   10
 C8 
A   11
 C9 
A   12
CL1 
M  END
>  <ref_pdb>  (112) 
x0554_0A

>  <ref_mols>  (112) 
x0554_0A,x0310_0A

>  <original SMILES>  (112) 
CC(=O)Nc1cc(C)ccc1Cl

>  <rationale>  (112) 
info cluster #8 (rank 12); hbond:S125; hydroph_interaction:Y89+D109+V124; 

>  <cluster_rank>  (112) 
12

>  <N_interactions>  (112) 
4

>  <N_interactions_lost>  (112) 
2

>  <∆∆G>  (112) 
-8.112541

>  <comRMSD>  (112) 
0.630855

>  <N_rotatable_bonds>  (112) 
3

>  <N_unconstrained_atoms>  (112) 
1

>  <N_constrained_atoms>  (112) 
13

>  <price>  (112) 
0

$$$$
Z68591156
     RDKit          3D

 15 16  0  0  0  0  0  0  0  0999 V2000
   12.2580   15.6220   21.5000 C   0  0  0  0  0  0  0  0  0  0  0  0
   11.1500   14.7070   22.0220 C   0  0  0  0  0  0  0  0  0  0  0  0
   11.3700   13.5440   22.9710 C   0  0  0  0  0  0  0  0  0  0  0  0
   12.4740   12.9600   23.6460 C   0  0  0  0  0  0  0  0  0  0  0  0
   12.4620   11.6230   23.9680 N   0  0  0  0  0  0  0  0  0  0  0  0
   13.4480   13.5980   23.9970 O   0  0  0  0  0  0  0  0  0  0  0  0
    9.9180   13.0630   23.0500 C   0  0  0  0  0  0  0  0  0  0  0  0
    9.4230   11.9690   23.7450 C   0  0  0  0  0  0  0  0  0  0  0  0
    9.9480   10.7010   23.4830 C   0  0  0  0  0  0  0  0  0  0  0  0
    9.4520    9.5940   24.1410 C   0  0  0  0  0  0  0  0  0  0  0  0
    8.4270    9.7710   25.0670 C   0  0  0  0  0  0  0  0  0  0  0  0
    7.8980   11.0180   25.3390 C   0  0  0  0  0  0  0  0  0  0  0  0
    8.3960   12.1260   24.6770 C   0  0  0  0  0  0  0  0  0  0  0  0
    9.1680   13.8810   22.3080 N   0  0  0  0  0  0  0  0  0  0  0  0
    9.9690   14.8500   21.7060 O   0  0  0  0  0  0  0  0  0  0  0  0
  1  2  1  0
  2  3  2  0
  3  4  1  0
  4  5  1  0
  4  6  2  0
  3  7  1  0
  7  8  1  0
  8  9  2  0
  9 10  1  0
 10 11  2  0
 11 12  1  0
 12 13  2  0
  7 14  2  0
 14 15  1  0
 15  2  1  0
 13  8  1  0
A    1
 C1 
A    2
 C2 
A    3
 C3 
A    4
 C4 
A    5
 N1 
A    6
 O1 
A    7
 C5 
A    8
 C6 
A    9
 C7 
A   10
 C8 
A   11
 C9 
A   12
 C10
A   13
 C11
A   14
 N2 
A   15
 O2 
M  END
>  <ref_pdb>  (113) 
x0554_0A

>  <ref_mols>  (113) 
x0566_0A

>  <original SMILES>  (113) 
Cc1onc(-c2ccccc2)c1C(N)=O

>  <rationale>  (113) 
info cluster #5 (rank 12); hbond:S125; hydroph_interaction:Y89+Y90; 

>  <cluster_rank>  (113) 
12

>  <N_interactions>  (113) 
3

>  <N_interactions_lost>  (113) 
0

>  <∆∆G>  (113) 
-5.890646

>  <comRMSD>  (113) 
0.973404

>  <N_rotatable_bonds>  (113) 
3

>  <N_unconstrained_atoms>  (113) 
2

>  <N_constrained_atoms>  (113) 
15

>  <price>  (113) 
0

$$$$
Z4285305685
     RDKit          3D

 18 18  0  0  0  0  0  0  0  0999 V2000
    9.4760   14.7770   17.3040 C   0  0  0  0  0  0  0  0  0  0  0  0
   10.2010   15.6240   18.3610 C   0  0  0  0  0  0  0  0  0  0  0  0
   11.3750   16.1640   17.6040 C   0  0  0  0  0  0  0  0  0  0  0  0
   10.6890   14.9250   19.6630 C   0  0  0  0  0  0  0  0  0  0  0  0
    9.9630   14.3070   20.4630 O   0  0  0  0  0  0  0  0  0  0  0  0
    9.4150   15.0140   21.6020 C   0  0  0  0  0  0  0  0  0  0  0  0
    9.6270   14.3920   23.0260 C   0  0  0  0  0  0  0  0  0  0  0  0
   10.6980   14.6110   23.5800 O   0  0  0  0  0  0  0  0  0  0  0  0
    8.5350   13.6400   23.6170 N   0  0  0  0  0  0  0  0  0  0  0  0
    8.5440   12.2600   24.0090 C   0  0  0  0  0  0  0  0  0  0  0  0
    9.4170   11.3360   23.5400 C   0  0  0  0  0  0  0  0  0  0  0  0
    9.2080   10.1160   24.0480 N   0  0  0  0  0  0  0  0  0  0  0  0
    9.8280    8.9100   23.8470 C   0  0  0  0  0  0  0  0  0  0  0  0
    8.2030   10.0610   24.9140 N   0  0  0  0  0  0  0  0  0  0  0  0
    7.7670   11.3630   24.9220 C   0  0  0  0  0  0  0  0  0  0  0  0
    6.5760   11.4510   25.9090 C   0  0  0  0  0  0  0  0  0  0  0  0
    6.1770   10.2220   26.3850 N   0  0  0  0  0  0  0  0  0  0  0  0
    6.0150   12.4810   26.2680 O   0  0  0  0  0  0  0  0  0  0  0  0
  1  2  1  0
  2  3  1  0
  2  4  1  0
  4  5  1  0
  5  6  1  0
  6  7  1  0
  7  8  2  0
  7  9  1  0
  9 10  1  0
 10 11  2  0
 11 12  1  0
 12 13  1  0
 12 14  1  0
 14 15  2  0
 15 16  1  0
 16 17  1  0
 16 18  2  0
 15 10  1  0
A    1
 C1 
A    2
 C2 
A    3
 C3 
A    4
 C4 
A    5
 O1 
A    6
 C5 
A    7
 C6 
A    8
 O2 
A    9
 N1 
A   10
 C7 
A   11
 C8 
A   12
 N2 
A   13
 C9 
A   14
 N3 
A   15
 C10
A   16
 C11
A   17
 N4 
A   18
 O3 
M  END
>  <ref_pdb>  (114) 
x0554_0A

>  <ref_mols>  (114) 
x0556_0A

>  <original SMILES>  (114) 
CC(C)COCC(=O)Nc1cn(C)nc1C(N)=O

>  <rationale>  (114) 
info cluster #2 (rank 12); hbond:S105+G127; hydroph_interaction:Y90+D39+T126; 

>  <cluster_rank>  (114) 
12

>  <N_interactions>  (114) 
5

>  <N_interactions_lost>  (114) 
1

>  <∆∆G>  (114) 
-8.995397

>  <comRMSD>  (114) 
0.803079

>  <N_rotatable_bonds>  (114) 
9

>  <N_unconstrained_atoms>  (114) 
5

>  <N_constrained_atoms>  (114) 
14

>  <price>  (114) 
0

$$$$
PV_006969111141
     RDKit          3D

 13 13  0  0  0  0  0  0  0  0999 V2000
   12.0220   14.8330   21.9140 C   0  0  0  0  0  0  0  0  0  0  0  0
   10.9750   13.8700   22.1790 N   0  0  0  0  0  0  0  0  0  0  0  0
   10.3790   13.8210   23.4350 C   0  0  0  0  0  0  0  0  0  0  0  0
   10.3600   14.7580   24.2200 O   0  0  0  0  0  0  0  0  0  0  0  0
    9.7570   12.5250   23.7900 C   0  0  0  0  0  0  0  0  0  0  0  0
    8.6230   12.3480   24.6210 C   0  0  0  0  0  0  0  0  0  0  0  0
    8.1350   11.0470   24.8740 C   0  0  0  0  0  0  0  0  0  0  0  0
    6.9320   10.8090   25.7580 C   0  0  0  0  0  0  0  0  0  0  0  0
    8.8110    9.9860   24.2710 C   0  0  0  0  0  0  0  0  0  0  0  0
    8.4470    8.6030   24.4300 C   0  0  0  0  0  0  0  0  0  0  0  0
    9.8900   10.1710   23.4730 C   0  0  0  0  0  0  0  0  0  0  0  0
   10.5260    8.9870   22.8700 C   0  0  0  0  0  0  0  0  0  0  0  0
   10.3730   11.4300   23.2360 C   0  0  0  0  0  0  0  0  0  0  0  0
  1  2  1  0
  2  3  1  0
  3  4  2  0
  3  5  1  0
  5  6  2  0
  6  7  1  0
  7  8  1  0
  7  9  2  0
  9 10  1  0
  9 11  1  0
 11 12  1  0
 11 13  2  0
 13  5  1  0
A    1
 C1 
A    2
 N1 
A    3
 C2 
A    4
 O1 
A    5
 C3 
A    6
 C4 
A    7
 C5 
A    8
 C6 
A    9
 C7 
A   10
 C8 
A   11
 C9 
A   12
 C10
A   13
 C11
M  END
>  <ref_pdb>  (115) 
x0554_0A

>  <ref_mols>  (115) 
x0451_0A,x0310_0A

>  <original SMILES>  (115) 
CNC(=O)c1cc(C)c(C)c(C)c1

>  <rationale>  (115) 
info cluster #0 (rank 12); hbond:S125; hydroph_interaction:A110+V124; 

>  <cluster_rank>  (115) 
12

>  <N_interactions>  (115) 
3

>  <N_interactions_lost>  (115) 
1

>  <∆∆G>  (115) 
-10.011151

>  <comRMSD>  (115) 
0.804035

>  <N_rotatable_bonds>  (115) 
5

>  <N_unconstrained_atoms>  (115) 
1

>  <N_constrained_atoms>  (115) 
14

>  <price>  (115) 
0

$$$$
PV_002314132056
     RDKit          3D

 11 11  0  0  0  0  0  0  0  0999 V2000
    9.9870    8.9650   23.8140 C   0  0  0  0  0  0  0  0  0  0  0  0
    9.1050   10.1130   24.2720 C   0  0  0  0  0  0  0  0  0  0  0  0
    9.4120   11.4620   23.6690 C   0  0  0  0  0  0  0  0  0  0  0  0
    8.6760   12.5270   24.0060 C   0  0  0  0  0  0  0  0  0  0  0  0
    8.9940   13.6850   23.4410 F   0  0  0  0  0  0  0  0  0  0  0  0
    7.6150   12.4320   24.9110 C   0  0  0  0  0  0  0  0  0  0  0  0
    7.2870   11.1920   25.5080 C   0  0  0  0  0  0  0  0  0  0  0  0
    6.2320   11.0710   26.4010 C   0  0  0  0  0  0  0  0  0  0  0  0
    5.7680    9.8460   26.7010 N   0  0  0  0  0  0  0  0  0  0  0  0
    5.7000   12.0530   26.9130 O   0  0  0  0  0  0  0  0  0  0  0  0
    8.0450   10.0430   25.1830 C   0  0  0  0  0  0  0  0  0  0  0  0
  1  2  1  0
  2  3  2  0
  3  4  1  0
  4  5  1  0
  4  6  2  0
  6  7  1  0
  7  8  1  0
  8  9  1  0
  8 10  2  0
  7 11  2  0
 11  2  1  0
A    1
 C1 
A    2
 C2 
A    3
 C3 
A    4
 C4 
A    5
 F1 
A    6
 C5 
A    7
 C6 
A    8
 C7 
A    9
 N1 
A   10
 O1 
A   11
 C8 
M  END
>  <ref_pdb>  (116) 
x0554_0A

>  <ref_mols>  (116) 
x0416_0A,x0556_0A

>  <original SMILES>  (116) 
Cc1cc(F)cc(C(N)=O)c1

>  <rationale>  (116) 
info cluster #6 (rank 12); hbond:S105; hydroph_interaction:D109; 

>  <cluster_rank>  (116) 
12

>  <N_interactions>  (116) 
2

>  <N_interactions_lost>  (116) 
1

>  <∆∆G>  (116) 
-6.441678

>  <comRMSD>  (116) 
0.920765

>  <N_rotatable_bonds>  (116) 
2

>  <N_unconstrained_atoms>  (116) 
1

>  <N_constrained_atoms>  (116) 
11

>  <price>  (116) 
0

$$$$
Z2991797042
     RDKit          3D

 17 18  0  0  0  0  0  0  0  0999 V2000
   12.6370   15.5540   21.4500 C   0  0  0  0  0  0  0  0  0  0  0  0
   12.0830   14.4270   22.2650 C   0  0  0  0  0  0  0  0  0  0  0  0
   10.6980   14.1510   22.0000 C   0  0  1  0  0  0  0  0  0  0  0  0
    9.9900   13.9520   23.2920 N   0  0  0  0  0  0  0  0  0  0  0  0
    9.6560   12.5320   23.6240 C   0  0  0  0  0  0  0  0  0  0  0  0
   10.2460   11.3780   23.1230 N   0  0  0  0  0  0  0  0  0  0  0  0
    9.5690   10.3820   23.7210 N   0  0  0  0  0  0  0  0  0  0  0  0
    9.9320    9.1000   23.3870 C   0  0  0  0  0  0  0  0  0  0  0  0
    8.6020   10.7990   24.5870 C   0  0  0  0  0  0  0  0  0  0  0  0
    7.6900   10.1680   25.4170 C   0  0  0  0  0  0  0  0  0  0  0  0
    6.7050   10.9150   26.2780 C   0  0  0  0  0  0  0  0  0  0  0  0
    6.7660   12.3030   26.1990 C   0  0  0  0  0  0  0  0  0  0  0  0
    7.7180   12.9070   25.3450 C   0  0  0  0  0  0  0  0  0  0  0  0
    8.6230   12.1930   24.5490 C   0  0  0  0  0  0  0  0  0  0  0  0
   10.0150   15.0160   21.1090 C   0  0  0  0  0  0  0  0  0  0  0  0
    9.4060   16.1190   21.6450 N   0  0  0  0  0  0  0  0  0  0  0  0
    9.9960   14.8510   19.8990 O   0  0  0  0  0  0  0  0  0  0  0  0
  1  2  1  0
  3  2  1  1
  3  4  1  0
  4  5  1  0
  5  6  2  0
  6  7  1  0
  7  8  1  0
  7  9  1  0
  9 10  2  0
 10 11  1  0
 11 12  2  0
 12 13  1  0
 13 14  2  0
  3 15  1  0
 15 16  1  0
 15 17  2  0
 14  5  1  0
 14  9  1  0
A    1
 C1 
A    2
 C2 
A    3
 C3 
A    4
 N1 
A    5
 C4 
A    6
 N2 
A    7
 N3 
A    8
 C5 
A    9
 C6 
A   10
 C7 
A   11
 C8 
A   12
 C9 
A   13
 C10
A   14
 C11
A   15
 C12
A   16
 N4 
A   17
 O1 
M  END
>  <ref_pdb>  (117) 
x0554_0A

>  <ref_mols>  (117) 
x0451_0A

>  <original SMILES>  (117) 
CCC(Nc1nn(C)c2ccccc12)C(N)=O

>  <rationale>  (117) 
info cluster #3 (rank 12); hbond:S87; hydroph_interaction:Y89+Y90; 

>  <cluster_rank>  (117) 
12

>  <N_interactions>  (117) 
4

>  <N_interactions_lost>  (117) 
1

>  <∆∆G>  (117) 
-7.834236

>  <comRMSD>  (117) 
0.68913

>  <N_rotatable_bonds>  (117) 
6

>  <N_unconstrained_atoms>  (117) 
1

>  <N_constrained_atoms>  (117) 
17

>  <price>  (117) 
0

$$$$
Z4107039666
     RDKit          3D

 17 18  0  0  0  0  0  0  0  0999 V2000
    8.9930    7.9050   23.4050 C   0  0  0  0  0  0  0  0  0  0  0  0
    8.8390    9.2930   23.8820 C   0  0  0  0  0  0  0  0  0  0  0  0
    7.8940    9.6910   24.8300 C   0  0  0  0  0  0  0  0  0  0  0  0
    7.9500   11.0780   25.0810 C   0  0  0  0  0  0  0  0  0  0  0  0
    8.8860   12.0220   24.4480 C   0  0  0  0  0  0  0  0  0  0  0  0
    8.5810   13.2310   24.9730 N   0  0  0  0  0  0  0  0  0  0  0  0
    7.5140   13.1250   25.9030 C   0  0  0  0  0  0  0  0  0  0  0  0
    7.1100   11.7730   25.9830 N   0  0  0  0  0  0  0  0  0  0  0  0
    9.8130   11.5700   23.5270 C   0  0  0  0  0  0  0  0  0  0  0  0
   10.7250   12.4440   22.9030 N   0  0  0  0  0  0  0  0  0  0  0  0
   11.0310   13.7630   23.1680 C   0  0  0  0  0  0  0  0  0  0  0  0
   10.7770   14.3800   24.1960 O   0  0  0  0  0  0  0  0  0  0  0  0
   11.7970   14.4310   21.9880 C   0  0  0  0  0  0  0  0  0  0  0  0
   11.1340   15.4230   20.9980 C   0  0  1  0  0  0  0  0  0  0  0  0
   10.7640   14.7650   19.8190 C   0  0  0  0  0  0  0  0  0  0  0  0
    9.9870   16.1930   21.5460 N   0  0  0  0  0  0  0  0  0  0  0  0
    9.7510   10.1930   23.2740 C   0  0  0  0  0  0  0  0  0  0  0  0
  1  2  1  0
  2  3  2  0
  3  4  1  0
  4  5  2  0
  5  6  1  0
  6  7  1  0
  7  8  2  0
  5  9  1  0
  9 10  1  0
 10 11  1  0
 11 12  2  0
 11 13  1  0
 13 14  1  0
 14 15  1  6
 14 16  1  0
  9 17  2  0
 17  2  1  0
  8  4  1  0
A    1
 C1 
A    2
 C2 
A    3
 C3 
A    4
 C4 
A    5
 C5 
A    6
 N1 
A    7
 C6 
A    8
 N2 
A    9
 C7 
A   10
 N3 
A   11
 C8 
A   12
 O1 
A   13
 C9 
A   14
 C10
A   15
 C11
A   16
 N4 
A   17
 C12
M  END
>  <ref_pdb>  (118) 
x0554_0A

>  <ref_mols>  (118) 
x0554_0A

>  <original SMILES>  (118) 
Cc1cc(NC(=O)C[C@@H](C)N)c2[nH]cnc2c1

>  <rationale>  (118) 
info cluster #7 (rank 12); hbond:S87+S125; hydroph_interaction:D109+V124; 

>  <cluster_rank>  (118) 
12

>  <N_interactions>  (118) 
5

>  <N_interactions_lost>  (118) 
3

>  <∆∆G>  (118) 
-9.546061

>  <comRMSD>  (118) 
0.752896

>  <N_rotatable_bonds>  (118) 
6

>  <N_unconstrained_atoms>  (118) 
1

>  <N_constrained_atoms>  (118) 
17

>  <price>  (118) 
0

$$$$
Z2440841519
     RDKit          3D

 13 13  0  0  0  0  0  0  0  0999 V2000
    9.3280   16.4270   21.2190 C   0  0  0  0  0  0  0  0  0  0  0  0
   10.1970   15.2100   21.4850 C   0  0  2  0  0  0  0  0  0  0  0  0
   10.7680   14.7130   20.1380 C   0  0  0  0  0  0  0  0  0  0  0  0
   12.2190   14.8770   20.0380 N   0  0  0  0  0  0  0  0  0  0  0  0
    9.4700   14.1560   22.2420 N   0  0  0  0  0  0  0  0  0  0  0  0
   10.2130   13.1980   22.9260 C   0  0  0  0  0  0  0  0  0  0  0  0
   11.4290   13.2680   22.9660 O   0  0  0  0  0  0  0  0  0  0  0  0
    9.5410   12.0540   23.6450 C   0  0  0  0  0  0  0  0  0  0  0  0
   10.0170   10.7490   23.3950 C   0  0  0  0  0  0  0  0  0  0  0  0
    9.4500    9.6530   24.0410 C   0  0  0  0  0  0  0  0  0  0  0  0
    8.4080    9.8540   24.9410 C   0  0  0  0  0  0  0  0  0  0  0  0
    7.9210   11.1270   25.1920 C   0  0  0  0  0  0  0  0  0  0  0  0
    8.4820   12.2310   24.5480 C   0  0  0  0  0  0  0  0  0  0  0  0
  2  1  1  6
  2  3  1  0
  3  4  1  0
  2  5  1  0
  5  6  1  0
  6  7  2  0
  6  8  1  0
  8  9  2  0
  9 10  1  0
 10 11  2  0
 11 12  1  0
 12 13  2  0
 13  8  1  0
A    1
 C1 
A    2
 C2 
A    3
 C3 
A    4
 N1 
A    5
 N2 
A    6
 C4 
A    7
 O1 
A    8
 C5 
A    9
 C6 
A   10
 C7 
A   11
 C8 
A   12
 C9 
A   13
 C10
M  END
>  <ref_pdb>  (119) 
x0554_0A

>  <ref_mols>  (119) 
x0566_0A

>  <original SMILES>  (119) 
C[C@H](CN)NC(=O)c1ccccc1

>  <rationale>  (119) 
info cluster #1 (rank 12); hbond:T126+D39; hydroph_interaction:V84; 

>  <cluster_rank>  (119) 
12

>  <N_interactions>  (119) 
3

>  <N_interactions_lost>  (119) 
0

>  <∆∆G>  (119) 
-5.116759

>  <comRMSD>  (119) 
0.612162

>  <N_rotatable_bonds>  (119) 
5

>  <N_unconstrained_atoms>  (119) 
1

>  <N_constrained_atoms>  (119) 
13

>  <price>  (119) 
0

$$$$
PV_002879968147
     RDKit          3D

 14 14  0  0  0  0  0  0  0  0999 V2000
   11.1000   14.8440   19.7140 C   0  0  0  0  0  0  0  0  0  0  0  0
   10.1180   15.3440   20.7650 C   0  0  0  0  0  0  0  0  0  0  0  0
    9.8090   16.8470   20.6060 C   0  0  0  0  0  0  0  0  0  0  0  0
   10.6150   15.0370   22.1700 C   0  0  0  0  0  0  0  0  0  0  0  0
   10.8920   15.9110   23.0110 O   0  0  0  0  0  0  0  0  0  0  0  0
   10.7110   13.7080   22.3820 O   0  0  0  0  0  0  0  0  0  0  0  0
   10.6670   13.3660   23.7660 C   0  0  0  0  0  0  0  0  0  0  0  0
   10.7530   11.8540   23.8890 C   0  0  0  0  0  0  0  0  0  0  0  0
    9.4410   11.2190   24.3390 C   0  0  0  0  0  0  0  0  0  0  0  0
    8.4460   12.0080   25.0440 C   0  0  0  0  0  0  0  0  0  0  0  0
    7.3380   11.0450   25.3250 C   0  0  0  0  0  0  0  0  0  0  0  0
    7.7020    9.8140   24.8050 N   0  0  0  0  0  0  0  0  0  0  0  0
    8.9600    9.9000   24.2040 N   0  0  0  0  0  0  0  0  0  0  0  0
    9.6070    8.7760   23.5700 C   0  0  0  0  0  0  0  0  0  0  0  0
  1  2  1  0
  2  3  1  0
  2  4  1  0
  4  5  2  0
  4  6  1  0
  6  7  1  0
  7  8  1  0
  8  9  1  0
  9 10  2  0
 10 11  1  0
 11 12  2  0
 12 13  1  0
 13 14  1  0
 13  9  1  0
A    1
 C1 
A    2
 C2 
A    3
 C3 
A    4
 C4 
A    5
 O1 
A    6
 O2 
A    7
 C5 
A    8
 C6 
A    9
 C7 
A   10
 C8 
A   11
 C9 
A   12
 N1 
A   13
 N2 
A   14
 C10
M  END
>  <ref_pdb>  (120) 
x0554_0A

>  <ref_mols>  (120) 
x0556_0A

>  <original SMILES>  (120) 
CC(C)C(=O)OCCc1ccnn1C

>  <rationale>  (120) 
info cluster #4 (rank 12); hbond:S87; hydroph_interaction:Y90+V84; saltbridge:H21; 

>  <cluster_rank>  (120) 
12

>  <N_interactions>  (120) 
4

>  <N_interactions_lost>  (120) 
1

>  <∆∆G>  (120) 
-7.994214

>  <comRMSD>  (120) 
0.693673

>  <N_rotatable_bonds>  (120) 
7

>  <N_unconstrained_atoms>  (120) 
2

>  <N_constrained_atoms>  (120) 
13

>  <price>  (120) 
0

$$$$
Z1574513953
     RDKit          3D

 13 13  0  0  0  0  0  0  0  0999 V2000
   10.8500   14.7740   20.0660 C   0  0  0  0  0  0  0  0  0  0  0  0
   10.0200   15.2180   21.2730 C   0  0  0  0  0  0  0  0  0  0  0  0
    9.8630   16.4220   21.5050 O   0  0  0  0  0  0  0  0  0  0  0  0
    9.4730   14.1840   22.0400 N   0  0  0  0  0  0  0  0  0  0  0  0
   10.2650   13.5030   23.0920 C   0  0  2  0  0  0  0  0  0  0  0  0
   11.6860   13.1820   22.6150 C   0  0  0  0  0  0  0  0  0  0  0  0
   12.6870   13.8050   23.4220 O   0  0  0  0  0  0  0  0  0  0  0  0
    9.5940   12.2560   23.7210 C   0  0  0  0  0  0  0  0  0  0  0  0
   10.0930   10.9060   23.4050 C   0  0  0  0  0  0  0  0  0  0  0  0
    9.5660    9.6020   23.9560 C   0  0  0  0  0  0  0  0  0  0  0  0
    8.5150    9.7870   24.8400 C   0  0  0  0  0  0  0  0  0  0  0  0
    8.0640   11.1160   25.1030 C   0  0  0  0  0  0  0  0  0  0  0  0
    8.4890   12.3530   24.6360 C   0  0  0  0  0  0  0  0  0  0  0  0
  1  2  1  0
  2  3  2  0
  2  4  1  0
  4  5  1  0
  5  6  1  6
  6  7  1  0
  5  8  1  0
  8  9  2  0
  9 10  1  0
 10 11  2  0
 11 12  1  0
 12 13  2  0
 13  8  1  0
A    1
 C1 
A    2
 C2 
A    3
 O1 
A    4
 N1 
A    5
 C3 
A    6
 C4 
A    7
 O2 
A    8
 C5 
A    9
 C6 
A   10
 C7 
A   11
 C8 
A   12
 C9 
A   13
 C10
M  END
>  <ref_pdb>  (121) 
x0554_0A

>  <ref_mols>  (121) 
x0566_0A

>  <original SMILES>  (121) 
CC(=O)NC(CO)c1ccccc1

>  <rationale>  (121) 
info cluster #9 (rank 12); hbond:H21+S87+T126; 

>  <cluster_rank>  (121) 
12

>  <N_interactions>  (121) 
3

>  <N_interactions_lost>  (121) 
1

>  <∆∆G>  (121) 
-6.507474

>  <comRMSD>  (121) 
0.581208

>  <N_rotatable_bonds>  (121) 
5

>  <N_unconstrained_atoms>  (121) 
1

>  <N_constrained_atoms>  (121) 
12

>  <price>  (121) 
0

$$$$
PV_007176233695
     RDKit          3D

 12 12  0  0  0  0  0  0  0  0999 V2000
   11.8800   14.3950   22.3090 C   0  0  0  0  0  0  0  0  0  0  0  0
   11.2630   13.5650   23.4230 C   0  0  0  0  0  0  0  0  0  0  0  0
   11.3080   13.9510   24.5840 O   0  0  0  0  0  0  0  0  0  0  0  0
   10.6910   12.4020   22.9520 N   0  0  0  0  0  0  0  0  0  0  0  0
    9.7730   11.5190   23.5880 C   0  0  0  0  0  0  0  0  0  0  0  0
    9.7820   10.1460   23.2230 C   0  0  0  0  0  0  0  0  0  0  0  0
    8.8040    9.1950   23.8790 C   0  0  0  0  0  0  0  0  0  0  0  0
    8.8760    7.7440   23.3940 C   0  0  0  0  0  0  0  0  0  0  0  0
    7.9220    9.6610   24.8410 C   0  0  0  0  0  0  0  0  0  0  0  0
    7.9470   11.1370   25.1960 C   0  0  0  0  0  0  0  0  0  0  0  0
    8.8470   11.9790   24.5620 C   0  0  0  0  0  0  0  0  0  0  0  0
    8.7090   13.9830   25.1590 I   0  0  0  0  0  0  0  0  0  0  0  0
  1  2  1  0
  2  3  2  0
  2  4  1  0
  4  5  1  0
  5  6  2  0
  6  7  1  0
  7  8  1  0
  7  9  2  0
  9 10  1  0
 10 11  2  0
 11 12  1  0
 11  5  1  0
A    1
 C1 
A    2
 C2 
A    3
 O1 
A    4
 N1 
A    5
 C3 
A    6
 C4 
A    7
 C5 
A    8
 C6 
A    9
 C7 
A   10
 C8 
A   11
 C9 
A   12
 I1 
M  END
>  <ref_pdb>  (122) 
x0554_0A

>  <ref_mols>  (122) 
x0554_0A,x0310_0A

>  <original SMILES>  (122) 
CC(=O)Nc1cc(C)ccc1I

>  <rationale>  (122) 
info cluster #8 (rank 13); hbond:S125; hydroph_interaction:Y89+D109+V124; 

>  <cluster_rank>  (122) 
13

>  <N_interactions>  (122) 
4

>  <N_interactions_lost>  (122) 
2

>  <∆∆G>  (122) 
-8.10175

>  <comRMSD>  (122) 
0.680876

>  <N_rotatable_bonds>  (122) 
3

>  <N_unconstrained_atoms>  (122) 
1

>  <N_constrained_atoms>  (122) 
13

>  <price>  (122) 
0

$$$$
Z3245077170
     RDKit          3D

 14 14  0  0  0  0  0  0  0  0999 V2000
   11.8340   14.2480   22.4930 C   0  0  0  0  0  0  0  0  0  0  0  0
   11.0730   13.4810   23.5700 C   0  0  0  0  0  0  0  0  0  0  0  0
   11.0250   13.8990   24.7190 O   0  0  0  0  0  0  0  0  0  0  0  0
   10.5000   12.3270   23.0780 N   0  0  0  0  0  0  0  0  0  0  0  0
    9.5600   11.4340   23.7030 C   0  0  0  0  0  0  0  0  0  0  0  0
    9.6020   10.0640   23.4080 C   0  0  0  0  0  0  0  0  0  0  0  0
   10.5790    9.4660   22.4920 C   0  0  0  0  0  0  0  0  0  0  0  0
    8.7140    9.1790   23.9620 C   0  0  0  0  0  0  0  0  0  0  0  0
    8.8000    7.7420   23.5720 C   0  0  0  0  0  0  0  0  0  0  0  0
    7.7660    9.6340   24.8560 C   0  0  0  0  0  0  0  0  0  0  0  0
    7.6630   10.9640   25.2000 C   0  0  0  0  0  0  0  0  0  0  0  0
    6.7150   11.3310   26.0680 C   0  0  0  0  0  0  0  0  0  0  0  0
    8.5640   11.8990   24.6160 C   0  0  0  0  0  0  0  0  0  0  0  0
    8.4610   13.2300   24.9360 C   0  0  0  0  0  0  0  0  0  0  0  0
  1  2  1  0
  2  3  2  0
  2  4  1  0
  4  5  1  0
  5  6  2  0
  6  7  1  0
  6  8  1  0
  8  9  1  0
  8 10  2  0
 10 11  1  0
 11 12  1  0
 11 13  2  0
 13 14  1  0
 13  5  1  0
A    1
 C1 
A    2
 C2 
A    3
 O1 
A    4
 N1 
A    5
 C3 
A    6
 C4 
A    7
 C5 
A    8
 C6 
A    9
 C7 
A   10
 C8 
A   11
 C9 
A   12
 C10
A   13
 C11
A   14
 C12
M  END
>  <ref_pdb>  (123) 
x0554_0A

>  <ref_mols>  (123) 
x0554_0A,x0310_0A

>  <original SMILES>  (123) 
CC(=O)Nc1c(C)c(C)cc(C)c1C

>  <rationale>  (123) 
info cluster #5 (rank 13); hbond:S125; hydroph_interaction:Y89+A110+D109; 

>  <cluster_rank>  (123) 
13

>  <N_interactions>  (123) 
4

>  <N_interactions_lost>  (123) 
1

>  <∆∆G>  (123) 
-10.932728

>  <comRMSD>  (123) 
0.546014

>  <N_rotatable_bonds>  (123) 
6

>  <N_unconstrained_atoms>  (123) 
1

>  <N_constrained_atoms>  (123) 
13

>  <price>  (123) 
0

$$$$
Z2066182998
     RDKit          3D

 16 17  0  0  0  0  0  0  0  0999 V2000
   12.0330   15.0210   20.6720 C   0  0  0  0  0  0  0  0  0  0  0  0
   11.0250   15.3630   21.7070 C   0  0  1  0  0  0  0  0  0  0  0  0
    9.5890   15.0070   21.7290 C   0  0  0  0  0  0  0  0  0  0  0  0
    9.2600   14.0700   22.7070 C   0  0  0  0  0  0  0  0  0  0  0  0
   10.1860   13.0610   22.9980 C   0  0  2  0  0  0  0  0  0  0  0  0
    9.6550   11.9240   23.6440 C   0  0  0  0  0  0  0  0  0  0  0  0
   10.1640   10.6430   23.4000 C   0  0  0  0  0  0  0  0  0  0  0  0
    9.6160    9.5350   24.0350 C   0  0  0  0  0  0  0  0  0  0  0  0
    8.5560    9.6960   24.9280 C   0  0  0  0  0  0  0  0  0  0  0  0
    8.0350   10.9630   25.1830 C   0  0  0  0  0  0  0  0  0  0  0  0
    8.5810   12.0780   24.5430 C   0  0  0  0  0  0  0  0  0  0  0  0
   11.3990   13.6570   23.5780 N   0  0  0  0  0  0  0  0  0  0  0  0
   12.5370   12.9790   24.0150 C   0  0  0  0  0  0  0  0  0  0  0  0
   12.5320   11.6330   24.1030 N   0  0  0  0  0  0  0  0  0  0  0  0
   13.5650   13.5450   24.3340 O   0  0  0  0  0  0  0  0  0  0  0  0
   11.6690   15.0010   23.0620 C   0  0  0  0  0  0  0  0  0  0  0  0
  2  1  1  6
  2  3  1  0
  3  4  1  0
  4  5  1  0
  5  6  1  1
  6  7  2  0
  7  8  1  0
  8  9  2  0
  9 10  1  0
 10 11  2  0
  5 12  1  0
 12 13  1  0
 13 14  1  0
 13 15  2  0
 12 16  1  0
 16  2  1  0
 11  6  1  0
A    1
 C1 
A    2
 C2 
A    3
 C3 
A    4
 C4 
A    5
 C5 
A    6
 C6 
A    7
 C7 
A    8
 C8 
A    9
 C9 
A   10
 C10
A   11
 C11
A   12
 N1 
A   13
 C12
A   14
 N2 
A   15
 O1 
A   16
 C13
M  END
>  <ref_pdb>  (124) 
x0554_0A

>  <ref_mols>  (124) 
x0566_0A

>  <original SMILES>  (124) 
CC1CCC(c2ccccc2)N(C(N)=O)C1

>  <rationale>  (124) 
info cluster #2 (rank 13); hbond:S125; hydroph_interaction:Y90; 

>  <cluster_rank>  (124) 
13

>  <N_interactions>  (124) 
2

>  <N_interactions_lost>  (124) 
0

>  <∆∆G>  (124) 
-5.637617

>  <comRMSD>  (124) 
0.658066

>  <N_rotatable_bonds>  (124) 
2

>  <N_unconstrained_atoms>  (124) 
3

>  <N_constrained_atoms>  (124) 
15

>  <price>  (124) 
0

$$$$
PV_002318985932
     RDKit          3D

 12 12  0  0  0  0  0  0  0  0999 V2000
   11.8480   14.1940   22.3500 C   0  0  0  0  0  0  0  0  0  0  0  0
   11.1300   13.3770   23.4190 C   0  0  0  0  0  0  0  0  0  0  0  0
   11.0580   14.0430   24.6790 O   0  0  0  0  0  0  0  0  0  0  0  0
   10.6490   12.1330   23.0470 N   0  0  0  0  0  0  0  0  0  0  0  0
    9.6470   11.3640   23.7210 C   0  0  0  0  0  0  0  0  0  0  0  0
    9.7470    9.9300   23.6660 C   0  0  0  0  0  0  0  0  0  0  0  0
   10.7060    9.2740   23.0300 C   0  0  0  0  0  0  0  0  0  0  0  0
    8.8010    9.1360   24.3130 C   0  0  0  0  0  0  0  0  0  0  0  0
    7.6700    9.7940   25.0770 C   0  0  0  0  0  0  0  0  0  0  0  0
    7.6100   11.1650   25.0980 C   0  0  0  0  0  0  0  0  0  0  0  0
    8.5710   11.9470   24.4350 C   0  0  0  0  0  0  0  0  0  0  0  0
    8.2900   13.4320   24.5920 C   0  0  0  0  0  0  0  0  0  0  0  0
  1  2  1  0
  2  3  2  0
  2  4  1  0
  4  5  1  0
  5  6  2  0
  6  7  1  0
  6  8  1  0
  8  9  2  0
  9 10  1  0
 10 11  2  0
 11 12  1  0
 11  5  1  0
A    1
 C1 
A    2
 C2 
A    3
 O1 
A    4
 N1 
A    5
 C3 
A    6
 C4 
A    7
 C5 
A    8
 C6 
A    9
 C7 
A   10
 C8 
A   11
 C9 
A   12
 C10
M  END
>  <ref_pdb>  (125) 
x0554_0A

>  <ref_mols>  (125) 
x0554_0A,x0310_0A

>  <original SMILES>  (125) 
CC(=O)Nc1c(C)cccc1C

>  <rationale>  (125) 
info cluster #0 (rank 13); hbond:S125; hydroph_interaction:A110+V124; 

>  <cluster_rank>  (125) 
13

>  <N_interactions>  (125) 
3

>  <N_interactions_lost>  (125) 
1

>  <∆∆G>  (125) 
-9.085435

>  <comRMSD>  (125) 
0.642955

>  <N_rotatable_bonds>  (125) 
4

>  <N_unconstrained_atoms>  (125) 
1

>  <N_constrained_atoms>  (125) 
13

>  <price>  (125) 
0

$$$$
PV_002999033004
     RDKit          3D

 12 13  0  0  0  0  0  0  0  0999 V2000
   10.4120   13.8910   22.7010 C   0  0  0  0  0  0  0  0  0  0  0  0
   10.8600   12.5700   23.2500 C   0  0  0  0  0  0  0  0  0  0  0  0
   12.3540   12.3990   23.3300 C   0  0  0  0  0  0  0  0  0  0  0  0
    9.9570   11.5060   23.7070 C   0  0  0  0  0  0  0  0  0  0  0  0
   10.1350   10.1630   23.3550 C   0  0  0  0  0  0  0  0  0  0  0  0
    9.2690    9.1970   23.8300 C   0  0  0  0  0  0  0  0  0  0  0  0
    8.1220    9.5980   24.7360 C   0  0  0  0  0  0  0  0  0  0  0  0
    7.9680   10.9390   25.0510 C   0  0  0  0  0  0  0  0  0  0  0  0
    8.8740   11.8620   24.5410 C   0  0  0  0  0  0  0  0  0  0  0  0
    8.4790   13.0940   25.0160 N   0  0  0  0  0  0  0  0  0  0  0  0
    7.3610   12.9690   25.8020 C   0  0  0  0  0  0  0  0  0  0  0  0
    7.0240   11.6390   25.8400 C   0  0  0  0  0  0  0  0  0  0  0  0
  1  2  2  0
  2  3  1  0
  2  4  1  0
  4  5  2  0
  5  6  1  0
  6  7  2  0
  7  8  1  0
  8  9  2  0
  9 10  1  0
 10 11  1  0
 11 12  2  0
  9  4  1  0
 12  8  1  0
A    1
 C1 
A    2
 C2 
A    3
 C3 
A    4
 C4 
A    5
 C5 
A    6
 C6 
A    7
 C7 
A    8
 C8 
A    9
 C9 
A   10
 N1 
A   11
 C10
A   12
 C11
M  END
>  <ref_pdb>  (126) 
x0554_0A

>  <ref_mols>  (126) 
x0554_0A,x0554_0A

>  <original SMILES>  (126) 
C=C(C)c1cccc2cc[nH]c12

>  <rationale>  (126) 
info cluster #6 (rank 13); hydroph_interaction:A110; 

>  <cluster_rank>  (126) 
13

>  <N_interactions>  (126) 
1

>  <N_interactions_lost>  (126) 
0

>  <∆∆G>  (126) 
-6.27583

>  <comRMSD>  (126) 
0.839907

>  <N_rotatable_bonds>  (126) 
2

>  <N_unconstrained_atoms>  (126) 
1

>  <N_constrained_atoms>  (126) 
13

>  <price>  (126) 
0

$$$$
Z4221679624
     RDKit          3D

 19 20  0  0  0  0  0  0  0  0999 V2000
    9.8570    8.6070   23.0470 C   0  0  0  0  0  0  0  0  0  0  0  0
    9.2480    9.7010   23.8240 C   0  0  0  0  0  0  0  0  0  0  0  0
    8.0650    9.5070   24.3920 N   0  0  0  0  0  0  0  0  0  0  0  0
    7.7850   10.6510   25.0160 N   0  0  0  0  0  0  0  0  0  0  0  0
    6.5580   10.7820   25.7720 C   0  0  0  0  0  0  0  0  0  0  0  0
    8.7510   11.5940   24.8510 C   0  0  0  0  0  0  0  0  0  0  0  0
    8.6390   12.9500   25.4410 C   0  0  0  0  0  0  0  0  0  0  0  0
    9.7530   10.9950   24.0820 C   0  0  0  0  0  0  0  0  0  0  0  0
   11.0620   11.5640   23.6390 C   0  0  2  0  0  0  0  0  0  0  0  0
   12.2580   11.2180   24.5190 C   0  0  0  0  0  0  0  0  0  0  0  0
   13.2850   12.3190   24.2350 C   0  0  0  0  0  0  0  0  0  0  0  0
   12.5610   13.2080   23.2550 C   0  0  0  0  0  0  0  0  0  0  0  0
   11.1470   13.0350   23.5720 N   0  0  0  0  0  0  0  0  0  0  0  0
   10.3910   13.6500   22.4760 C   0  0  0  0  0  0  0  0  0  0  0  0
   10.6550   15.1460   22.4010 C   0  0  0  0  0  0  0  0  0  0  0  0
   10.7990   15.8600   23.3900 O   0  0  0  0  0  0  0  0  0  0  0  0
   10.7550   15.7570   20.9940 C   0  0  1  0  0  0  0  0  0  0  0  0
   10.8610   14.7110   19.8920 C   0  0  0  0  0  0  0  0  0  0  0  0
    9.5970   16.6350   20.7480 N   0  0  0  0  0  0  0  0  0  0  0  0
  1  2  1  0
  2  3  2  0
  3  4  1  0
  4  5  1  0
  4  6  1  0
  6  7  1  0
  6  8  2  0
  9  8  1  1
  9 10  1  0
 10 11  1  0
 11 12  1  0
 12 13  1  0
 13 14  1  0
 14 15  1  0
 15 16  2  0
 15 17  1  0
 17 18  1  6
 17 19  1  0
  8  2  1  0
 13  9  1  0
A    1
 C1 
A    2
 C2 
A    3
 N1 
A    4
 N2 
A    5
 C3 
A    6
 C4 
A    7
 C5 
A    8
 C6 
A    9
 C7 
A   10
 C8 
A   11
 C9 
A   12
 C10
A   13
 N3 
A   14
 C11
A   15
 C12
A   16
 O1 
A   17
 C13
A   18
 C14
A   19
 N4 
M  END
>  <ref_pdb>  (127) 
x0554_0A

>  <ref_mols>  (127) 
x0310_0A

>  <original SMILES>  (127) 
Cc1nn(C)c(C)c1C1CCCN1CC(=O)[C@@H](C)N

>  <rationale>  (127) 
info cluster #7 (rank 13); hbond:S87; hydroph_interaction:Y89+A110+D109+V124; 

>  <cluster_rank>  (127) 
13

>  <N_interactions>  (127) 
6

>  <N_interactions_lost>  (127) 
2

>  <∆∆G>  (127) 
-9.226351

>  <comRMSD>  (127) 
0.897779

>  <N_rotatable_bonds>  (127) 
9

>  <N_unconstrained_atoms>  (127) 
0

>  <N_constrained_atoms>  (127) 
20

>  <price>  (127) 
0

$$$$
Z4079941991
     RDKit          3D

 18 19  0  0  0  0  0  0  0  0999 V2000
   11.2110   14.7700   19.9020 C   0  0  0  0  0  0  0  0  0  0  0  0
   10.2600   15.3300   20.9520 C   0  0  2  0  0  0  0  0  0  0  0  0
   10.0840   16.6960   20.7460 N   0  0  0  0  0  0  0  0  0  0  0  0
   10.6990   14.8840   22.3230 C   0  0  0  0  0  0  0  0  0  0  0  0
   11.0060   15.6700   23.2050 O   0  0  0  0  0  0  0  0  0  0  0  0
   10.7020   13.4930   22.4740 N   0  0  0  0  0  0  0  0  0  0  0  0
   11.0240   12.8470   23.6490 C   0  0  1  0  0  0  0  0  0  0  0  0
   10.0620   11.7350   23.9870 C   0  0  0  0  0  0  0  0  0  0  0  0
   10.3820   10.4140   23.6450 C   0  0  0  0  0  0  0  0  0  0  0  0
    9.5200    9.3800   23.9700 C   0  0  0  0  0  0  0  0  0  0  0  0
    8.3240    9.5940   24.6330 C   0  0  0  0  0  0  0  0  0  0  0  0
    7.9980   10.9050   24.9650 C   0  0  0  0  0  0  0  0  0  0  0  0
    8.8490   11.9600   24.6490 C   0  0  0  0  0  0  0  0  0  0  0  0
   12.5070   12.4030   23.5470 C   0  0  0  0  0  0  0  0  0  0  0  0
   13.2770   13.0460   24.4960 C   0  0  0  0  0  0  0  0  0  0  0  0
   12.8940   12.8130   25.8140 C   0  0  0  0  0  0  0  0  0  0  0  0
   11.5480   13.2520   26.0400 O   0  0  0  0  0  0  0  0  0  0  0  0
   10.9580   13.8410   24.8670 C   0  0  0  0  0  0  0  0  0  0  0  0
  2  1  1  6
  2  3  1  0
  2  4  1  0
  4  5  2  0
  4  6  1  0
  7  6  1  6
  7  8  1  0
  8  9  2  0
  9 10  1  0
 10 11  2  0
 11 12  1  0
 12 13  2  0
  7 14  1  0
 14 15  1  0
 15 16  1  0
 16 17  1  0
 17 18  1  0
 18  7  1  0
 13  8  1  0
A    1
 C1 
A    2
 C2 
A    3
 N1 
A    4
 C3 
A    5
 O1 
A    6
 N2 
A    7
 C4 
A    8
 C5 
A    9
 C6 
A   10
 C7 
A   11
 C8 
A   12
 C9 
A   13
 C10
A   14
 C11
A   15
 C12
A   16
 C13
A   17
 O2 
A   18
 C14
M  END
>  <ref_pdb>  (128) 
x0554_0A

>  <ref_mols>  (128) 
x0554_0A

>  <original SMILES>  (128) 
C[C@H](N)C(=O)NC1(c2ccccc2)CCCOC1

>  <rationale>  (128) 
info cluster #3 (rank 13); hbond:S87+S125; hydroph_interaction:Y89+A110; 

>  <cluster_rank>  (128) 
13

>  <N_interactions>  (128) 
5

>  <N_interactions_lost>  (128) 
3

>  <∆∆G>  (128) 
-9.540728

>  <comRMSD>  (128) 
0.917793

>  <N_rotatable_bonds>  (128) 
5

>  <N_unconstrained_atoms>  (128) 
3

>  <N_constrained_atoms>  (128) 
17

>  <price>  (128) 
0

$$$$
Z4275810263
     RDKit          3D

 16 18  0  0  0  0  0  0  0  0999 V2000
   12.6620   13.4500   23.7830 C   0  0  0  0  0  0  0  0  0  0  0  0
   11.6200   13.0240   22.7700 C   0  0  0  0  0  0  0  0  0  0  0  0
   10.2140   13.3200   23.2680 C   0  0  1  0  0  0  0  0  0  0  0  0
    9.5190   14.0820   22.2400 N   0  0  0  0  0  0  0  0  0  0  0  0
   10.3890   15.2010   21.7580 C   0  0  0  0  0  0  0  0  0  0  0  0
   10.6070   15.1560   20.3750 C   0  0  0  0  0  0  0  0  0  0  0  0
    9.6280   16.2460   20.7230 C   0  0  0  0  0  0  0  0  0  0  0  0
    9.5720   12.0520   23.8300 C   0  0  0  0  0  0  0  0  0  0  0  0
   10.0720   10.7830   23.4820 C   0  0  0  0  0  0  0  0  0  0  0  0
    9.5670    9.6160   23.9830 C   0  0  0  0  0  0  0  0  0  0  0  0
    8.5250    9.6260   24.8720 C   0  0  0  0  0  0  0  0  0  0  0  0
    7.9640   10.8420   25.2480 C   0  0  0  0  0  0  0  0  0  0  0  0
    8.4840   12.0390   24.7300 C   0  0  0  0  0  0  0  0  0  0  0  0
    7.7490   13.0710   25.2760 N   0  0  0  0  0  0  0  0  0  0  0  0
    6.7840   12.5820   26.1140 C   0  0  0  0  0  0  0  0  0  0  0  0
    6.8920   11.1870   26.1180 C   0  0  0  0  0  0  0  0  0  0  0  0
  1  2  1  0
  3  2  1  6
  3  4  1  0
  4  5  1  0
  5  6  1  0
  6  7  1  0
  3  8  1  0
  8  9  2  0
  9 10  1  0
 10 11  2  0
 11 12  1  0
 12 13  2  0
 13 14  1  0
 14 15  1  0
 15 16  2  0
  7  5  1  0
 13  8  1  0
 16 12  1  0
A    1
 C1 
A    2
 C2 
A    3
 C3 
A    4
 N1 
A    5
 C4 
A    6
 C5 
A    7
 C6 
A    8
 C7 
A    9
 C8 
A   10
 C9 
A   11
 C10
A   12
 C11
A   13
 C12
A   14
 N2 
A   15
 C13
A   16
 C14
M  END
>  <ref_pdb>  (129) 
x0554_0A

>  <ref_mols>  (129) 
x0566_0A

>  <original SMILES>  (129) 
CCC(NC1CC1)c1cccc2cc[nH]c12

>  <rationale>  (129) 
info cluster #1 (rank 13); hbond:T126; hydroph_interaction:Y89+V84; 

>  <cluster_rank>  (129) 
13

>  <N_interactions>  (129) 
3

>  <N_interactions_lost>  (129) 
0

>  <∆∆G>  (129) 
-5.917635

>  <comRMSD>  (129) 
0.876584

>  <N_rotatable_bonds>  (129) 
5

>  <N_unconstrained_atoms>  (129) 
1

>  <N_constrained_atoms>  (129) 
17

>  <price>  (129) 
0

$$$$
PV_006027861202
     RDKit          3D

 20 21  0  0  0  0  0  0  0  0999 V2000
   11.1970   14.7000   20.0010 C   0  0  0  0  0  0  0  0  0  0  0  0
   10.2150   15.1500   20.9500 O   0  0  0  0  0  0  0  0  0  0  0  0
   10.6370   15.1230   22.2520 C   0  0  0  0  0  0  0  0  0  0  0  0
   10.9490   16.0840   22.9180 O   0  0  0  0  0  0  0  0  0  0  0  0
   10.6670   13.7150   22.7920 C   0  0  0  0  0  0  0  0  0  0  0  0
    9.4440   13.7520   23.5040 C   0  0  0  0  0  0  0  0  0  0  0  0
    8.8770   12.5100   24.1520 C   0  0  0  0  0  0  0  0  0  0  0  0
    9.5440   11.2500   23.6350 C   0  0  0  0  0  0  0  0  0  0  0  0
    9.1910    9.9990   24.0910 C   0  0  0  0  0  0  0  0  0  0  0  0
    9.8110    8.8520   23.6030 C   0  0  0  0  0  0  0  0  0  0  0  0
    8.1950    9.9940   25.0530 C   0  0  0  0  0  0  0  0  0  0  0  0
    7.5470   11.1830   25.5510 N   0  0  0  0  0  0  0  0  0  0  0  0
    7.8690   12.4090   25.1190 C   0  0  0  0  0  0  0  0  0  0  0  0
    7.2270   13.5570   25.6270 N   0  0  0  0  0  0  0  0  0  0  0  0
    5.7810   13.5550   25.9070 C   0  0  0  0  0  0  0  0  0  0  0  0
    5.3230   12.8850   27.1350 C   0  0  0  0  0  0  0  0  0  0  0  0
    6.0390   12.5830   28.2100 C   0  0  0  0  0  0  0  0  0  0  0  0
    5.3420   12.0010   29.2260 C   0  0  0  0  0  0  0  0  0  0  0  0
    3.9800   12.0620   28.8660 C   0  0  0  0  0  0  0  0  0  0  0  0
    3.9200   12.4220   27.4520 C   0  0  0  0  0  0  0  0  0  0  0  0
  1  2  1  0
  2  3  1  0
  3  4  2  0
  3  5  1  0
  5  6  1  0
  6  7  1  0
  7  8  2  0
  8  9  1  0
  9 10  1  0
  9 11  2  0
 11 12  1  0
 12 13  2  0
 13 14  1  0
 14 15  1  0
 15 16  1  0
 16 17  2  0
 17 18  1  0
 18 19  1  0
 19 20  1  0
 13  7  1  0
 20 16  1  0
A    1
 C1 
A    2
 O1 
A    3
 C2 
A    4
 O2 
A    5
 C3 
A    6
 C4 
A    7
 C5 
A    8
 C6 
A    9
 C7 
A   10
 C8 
A   11
 C9 
A   12
 N1 
A   13
 C10
A   14
 N2 
A   15
 C11
A   16
 C12
A   17
 C13
A   18
 C14
A   19
 C15
A   20
 C16
M  END
>  <ref_pdb>  (130) 
x0554_0A

>  <ref_mols>  (130) 
x0416_0A

>  <original SMILES>  (130) 
COC(=O)CCc1cc(C)cnc1NCC1=CCCC1

>  <rationale>  (130) 
info cluster #4 (rank 13); hbond:S87; hydroph_interaction:P107+D109+V124; saltbridge:H21; 

>  <cluster_rank>  (130) 
13

>  <N_interactions>  (130) 
5

>  <N_interactions_lost>  (130) 
1

>  <∆∆G>  (130) 
-7.769244

>  <comRMSD>  (130) 
0.560021

>  <N_rotatable_bonds>  (130) 
8

>  <N_unconstrained_atoms>  (130) 
2

>  <N_constrained_atoms>  (130) 
19

>  <price>  (130) 
0

$$$$
Z2434477552
     RDKit          3D

 15 15  0  0  0  0  0  0  0  0999 V2000
   13.3860   12.8930   24.1570 C   0  0  0  0  0  0  0  0  0  0  0  0
   11.9290   13.1470   24.4410 C   0  0  0  0  0  0  0  0  0  0  0  0
   10.9700   12.6270   23.3380 C   0  0  2  0  0  0  0  0  0  0  0  0
   10.1130   13.6780   22.8040 N   0  0  0  0  0  0  0  0  0  0  0  0
   10.5190   14.9290   22.3940 C   0  0  0  0  0  0  0  0  0  0  0  0
   11.0620   15.7490   23.1280 O   0  0  0  0  0  0  0  0  0  0  0  0
   10.1780   15.2430   20.9180 C   0  0  2  0  0  0  0  0  0  0  0  0
   11.2260   14.7370   20.0260 C   0  0  0  0  0  0  0  0  0  0  0  0
   10.0000   16.5790   20.7850 N   0  0  0  0  0  0  0  0  0  0  0  0
   10.0330   11.5770   23.8950 C   0  0  0  0  0  0  0  0  0  0  0  0
   10.2120   10.1930   23.7360 C   0  0  0  0  0  0  0  0  0  0  0  0
    9.2990    9.3140   24.3080 C   0  0  0  0  0  0  0  0  0  0  0  0
    8.1790    9.8480   25.0620 C   0  0  0  0  0  0  0  0  0  0  0  0
    8.0130   11.2010   25.2000 C   0  0  0  0  0  0  0  0  0  0  0  0
    8.9280   12.0590   24.6240 C   0  0  0  0  0  0  0  0  0  0  0  0
  1  2  1  0
  3  2  1  1
  3  4  1  0
  4  5  1  0
  5  6  2  0
  5  7  1  0
  7  8  1  6
  7  9  1  0
  3 10  1  0
 10 11  2  0
 11 12  1  0
 12 13  2  0
 13 14  1  0
 14 15  2  0
 15 10  1  0
A    1
 C1 
A    2
 C2 
A    3
 C3 
A    4
 N1 
A    5
 C4 
A    6
 O1 
A    7
 C5 
A    8
 C6 
A    9
 N2 
A   10
 C7 
A   11
 C8 
A   12
 C9 
A   13
 C10
A   14
 C11
A   15
 C12
M  END
>  <ref_pdb>  (131) 
x0554_0A

>  <ref_mols>  (131) 
x0554_0A

>  <original SMILES>  (131) 
CCC(NC(=O)C(C)N)c1ccccc1

>  <rationale>  (131) 
info cluster #9 (rank 13); hbond:S87+T126; hydroph_interaction:Y89; 

>  <cluster_rank>  (131) 
13

>  <N_interactions>  (131) 
4

>  <N_interactions_lost>  (131) 
1

>  <∆∆G>  (131) 
-6.994946

>  <comRMSD>  (131) 
0.970959

>  <N_rotatable_bonds>  (131) 
7

>  <N_unconstrained_atoms>  (131) 
0

>  <N_constrained_atoms>  (131) 
17

>  <price>  (131) 
0

$$$$
Z3524729102
     RDKit          3D

 14 15  0  0  0  0  0  0  0  0999 V2000
   12.0210   14.7460   21.7770 C   0  0  0  0  0  0  0  0  0  0  0  0
   11.0880   13.7150   22.1530 N   0  0  0  0  0  0  0  0  0  0  0  0
   10.5450   13.6830   23.4220 C   0  0  0  0  0  0  0  0  0  0  0  0
   10.5880   14.6410   24.1870 O   0  0  0  0  0  0  0  0  0  0  0  0
    9.8990   12.4230   23.8330 C   0  0  0  0  0  0  0  0  0  0  0  0
   10.3850   11.2120   23.3500 C   0  0  0  0  0  0  0  0  0  0  0  0
    9.8030    9.9990   23.7220 C   0  0  0  0  0  0  0  0  0  0  0  0
   10.3610    8.7510   23.1750 C   0  0  0  0  0  0  0  0  0  0  0  0
    8.7190    9.9660   24.5950 C   0  0  0  0  0  0  0  0  0  0  0  0
    8.2340   11.1600   25.0720 C   0  0  0  0  0  0  0  0  0  0  0  0
    8.8150   12.3620   24.6950 C   0  0  0  0  0  0  0  0  0  0  0  0
    8.2000   13.4480   25.2710 O   0  0  0  0  0  0  0  0  0  0  0  0
    6.9670   12.9120   25.8010 C   0  0  0  0  0  0  0  0  0  0  0  0
    7.1110   11.4070   25.9950 C   0  0  0  0  0  0  0  0  0  0  0  0
  1  2  1  0
  2  3  1  0
  3  4  2  0
  3  5  1  0
  5  6  2  0
  6  7  1  0
  7  8  1  0
  7  9  2  0
  9 10  1  0
 10 11  2  0
 11 12  1  0
 12 13  1  0
 13 14  1  0
 11  5  1  0
 14 10  1  0
A    1
 C1 
A    2
 N1 
A    3
 C2 
A    4
 O1 
A    5
 C3 
A    6
 C4 
A    7
 C5 
A    8
 C6 
A    9
 C7 
A   10
 C8 
A   11
 C9 
A   12
 O2 
A   13
 C10
A   14
 C11
M  END
>  <ref_pdb>  (132) 
x0554_0A

>  <ref_mols>  (132) 
x0451_0A,x0554_0A,x0310_0A

>  <original SMILES>  (132) 
CNC(=O)c1cc(C)cc2c1OCC2

>  <rationale>  (132) 
info cluster #8 (rank 14); hbond:S125; hydroph_interaction:D109+V124; 

>  <cluster_rank>  (132) 
14

>  <N_interactions>  (132) 
3

>  <N_interactions_lost>  (132) 
1

>  <∆∆G>  (132) 
-8.376851

>  <comRMSD>  (132) 
0.658976

>  <N_rotatable_bonds>  (132) 
3

>  <N_unconstrained_atoms>  (132) 
0

>  <N_constrained_atoms>  (132) 
14

>  <price>  (132) 
0

$$$$
PV_006891187235
     RDKit          3D

 15 16  0  0  0  0  0  0  0  0999 V2000
   11.8730   14.3550   22.5200 C   0  0  0  0  0  0  0  0  0  0  0  0
   11.0800   13.5880   23.5690 C   0  0  0  0  0  0  0  0  0  0  0  0
   11.1040   13.9180   24.7480 O   0  0  0  0  0  0  0  0  0  0  0  0
   10.3890   12.5410   23.0100 N   0  0  0  0  0  0  0  0  0  0  0  0
    9.6760   11.4700   23.6190 C   0  0  0  0  0  0  0  0  0  0  0  0
    8.6170   11.5880   24.5450 C   0  0  0  0  0  0  0  0  0  0  0  0
    8.0010   12.8750   25.1100 C   0  0  0  0  0  0  0  0  0  0  0  0
    6.9570   12.7390   26.0090 N   0  0  0  0  0  0  0  0  0  0  0  0
    6.4760   11.5430   26.3930 C   0  0  0  0  0  0  0  0  0  0  0  0
    6.9770   10.3660   25.9340 C   0  0  0  0  0  0  0  0  0  0  0  0
    8.0180   10.4230   25.0390 C   0  0  0  0  0  0  0  0  0  0  0  0
    8.4480    9.0620   24.6400 C   0  0  0  0  0  0  0  0  0  0  0  0
    9.4640    8.9890   23.7430 C   0  0  0  0  0  0  0  0  0  0  0  0
   10.0410   10.1480   23.2630 C   0  0  0  0  0  0  0  0  0  0  0  0
   11.0500    9.7990   22.3600 O   0  0  0  0  0  0  0  0  0  0  0  0
  1  2  1  0
  2  3  2  0
  2  4  1  0
  4  5  1  0
  5  6  2  0
  6  7  1  0
  7  8  2  0
  8  9  1  0
  9 10  2  0
 10 11  1  0
 11 12  2  0
 12 13  1  0
 13 14  2  0
 14 15  1  0
 14  5  1  0
 11  6  1  0
A    1
 C1 
A    2
 C2 
A    3
 O1 
A    4
 N1 
A    5
 C3 
A    6
 C4 
A    7
 C5 
A    8
 N2 
A    9
 C6 
A   10
 C7 
A   11
 C8 
A   12
 C9 
A   13
 C10
A   14
 C11
A   15
 O2 
M  END
>  <ref_pdb>  (133) 
x0554_0A

>  <ref_mols>  (133) 
x0554_0A,x0451_0A

>  <original SMILES>  (133) 
CC(=O)Nc1c(O)ccc2ccncc12

>  <rationale>  (133) 
info cluster #5 (rank 14); hbond:S125; hydroph_interaction:Y89; 

>  <cluster_rank>  (133) 
14

>  <N_interactions>  (133) 
3

>  <N_interactions_lost>  (133) 
1

>  <∆∆G>  (133) 
-7.881276

>  <comRMSD>  (133) 
0.668823

>  <N_rotatable_bonds>  (133) 
3

>  <N_unconstrained_atoms>  (133) 
1

>  <N_constrained_atoms>  (133) 
15

>  <price>  (133) 
0

$$$$
PV_002762975815
     RDKit          3D

 18 20  0  0  0  0  0  0  0  0999 V2000
   12.6940   15.2810   21.5510 C   0  0  0  0  0  0  0  0  0  0  0  0
   11.3720   14.7720   21.9950 C   0  0  0  0  0  0  0  0  0  0  0  0
   10.3020   15.8040   21.5720 C   0  0  0  0  0  0  0  0  0  0  0  0
    8.9300   15.3740   21.9610 C   0  0  0  0  0  0  0  0  0  0  0  0
    8.6860   14.0610   22.6880 C   0  0  0  0  0  0  0  0  0  0  0  0
    9.7590   13.1980   23.0200 C   0  0  0  0  0  0  0  0  0  0  0  0
    9.3650   11.9160   23.7140 C   0  0  0  0  0  0  0  0  0  0  0  0
   10.0240   10.7400   23.3290 C   0  0  0  0  0  0  0  0  0  0  0  0
    9.6650    9.5410   23.9180 C   0  0  0  0  0  0  0  0  0  0  0  0
    8.6200    9.5430   24.9140 C   0  0  0  0  0  0  0  0  0  0  0  0
    7.9800   10.7150   25.2870 C   0  0  0  0  0  0  0  0  0  0  0  0
    8.3630   11.9080   24.6800 C   0  0  0  0  0  0  0  0  0  0  0  0
    7.6100   12.9610   25.1850 N   0  0  0  0  0  0  0  0  0  0  0  0
    6.7300   12.5120   26.1180 C   0  0  0  0  0  0  0  0  0  0  0  0
    6.9480   11.0150   26.2110 C   0  0  0  0  0  0  0  0  0  0  0  0
   11.1230   13.5290   22.6900 C   0  0  0  0  0  0  0  0  0  0  0  0
   12.1650   12.6360   23.0280 C   0  0  0  0  0  0  0  0  0  0  0  0
   13.1560   13.1350   23.9200 O   0  0  0  0  0  0  0  0  0  0  0  0
  1  2  1  0
  2  3  2  0
  3  4  1  0
  4  5  2  0
  5  6  1  0
  6  7  1  0
  7  8  2  0
  8  9  1  0
  9 10  2  0
 10 11  1  0
 11 12  2  0
 12 13  1  0
 13 14  1  0
 14 15  2  0
  6 16  2  0
 16 17  1  0
 17 18  1  0
 16  2  1  0
 12  7  1  0
 15 11  1  0
A    1
 C1 
A    2
 C2 
A    3
 C3 
A    4
 C4 
A    5
 C5 
A    6
 C6 
A    7
 C7 
A    8
 C8 
A    9
 C9 
A   10
 C10
A   11
 C11
A   12
 C12
A   13
 N1 
A   14
 C13
A   15
 C14
A   16
 C15
A   17
 C16
A   18
 O1 
M  END
>  <ref_pdb>  (134) 
x0554_0A

>  <ref_mols>  (134) 
x0566_0A

>  <original SMILES>  (134) 
Cc1cccc(-c2cccc3cc[nH]c23)c1CO

>  <rationale>  (134) 
info cluster #2 (rank 14); hydroph_interaction:Y89+Y90; 

>  <cluster_rank>  (134) 
14

>  <N_interactions>  (134) 
2

>  <N_interactions_lost>  (134) 
0

>  <∆∆G>  (134) 
-8.133203

>  <comRMSD>  (134) 
0.90688

>  <N_rotatable_bonds>  (134) 
4

>  <N_unconstrained_atoms>  (134) 
3

>  <N_constrained_atoms>  (134) 
18

>  <price>  (134) 
0

$$$$
Z4919339511
     RDKit          3D

 13 14  0  0  0  0  0  0  0  0999 V2000
    5.4180   13.2760   27.7670 N   0  0  0  0  0  0  0  0  0  0  0  0
    5.8290   13.5960   26.5080 C   0  0  0  0  0  0  0  0  0  0  0  0
    5.4070   14.6130   25.9710 O   0  0  0  0  0  0  0  0  0  0  0  0
    6.7490   12.6720   25.8980 C   0  0  0  0  0  0  0  0  0  0  0  0
    6.8760   11.3100   26.0450 C   0  0  0  0  0  0  0  0  0  0  0  0
    7.9300   10.8690   25.2240 C   0  0  0  0  0  0  0  0  0  0  0  0
    8.4810    9.6180   24.9870 C   0  0  0  0  0  0  0  0  0  0  0  0
    9.5310    9.4670   24.1090 C   0  0  0  0  0  0  0  0  0  0  0  0
   10.0360   10.5660   23.4720 C   0  0  0  0  0  0  0  0  0  0  0  0
   11.0640   10.3190   22.6420 O   0  0  0  0  0  0  0  0  0  0  0  0
    9.5270   11.8540   23.6720 C   0  0  0  0  0  0  0  0  0  0  0  0
    8.4540   11.9700   24.5690 C   0  0  0  0  0  0  0  0  0  0  0  0
    7.7210   13.0590   24.9930 N   0  0  0  0  0  0  0  0  0  0  0  0
  1  2  1  0
  2  3  2  0
  2  4  1  0
  4  5  2  0
  5  6  1  0
  6  7  2  0
  7  8  1  0
  8  9  2  0
  9 10  1  0
  9 11  1  0
 11 12  2  0
 12 13  1  0
 13  4  1  0
 12  6  1  0
A    1
 N1 
A    2
 C1 
A    3
 O1 
A    4
 C2 
A    5
 C3 
A    6
 C4 
A    7
 C5 
A    8
 C6 
A    9
 C7 
A   10
 O2 
A   11
 C8 
A   12
 C9 
A   13
 N2 
M  END
>  <ref_pdb>  (135) 
x0554_0A

>  <ref_mols>  (135) 
x0554_0A,x0416_0A

>  <original SMILES>  (135) 
NC(=O)c1cc2ccc(O)cc2[nH]1

>  <rationale>  (135) 
info cluster #0 (rank 14); hbond:A110+S125; 

>  <cluster_rank>  (135) 
14

>  <N_interactions>  (135) 
2

>  <N_interactions_lost>  (135) 
0

>  <∆∆G>  (135) 
-4.163444

>  <comRMSD>  (135) 
0.634013

>  <N_rotatable_bonds>  (135) 
2

>  <N_unconstrained_atoms>  (135) 
2

>  <N_constrained_atoms>  (135) 
12

>  <price>  (135) 
0

$$$$
Z3242563589
     RDKit          3D

 14 15  0  0  0  0  0  0  0  0999 V2000
   12.1480   14.9490   21.5790 C   0  0  0  0  0  0  0  0  0  0  0  0
   11.5630   13.7180   22.1150 N   0  0  0  0  0  0  0  0  0  0  0  0
   10.1710   13.8890   23.0440 S   0  0  0  0  0  6  0  0  0  0  0  0
   10.5520   14.6070   24.2360 O   0  0  0  0  0  0  0  0  0  0  0  0
    9.0750   14.2910   22.1830 O   0  0  0  0  0  0  0  0  0  0  0  0
    9.6700   12.3580   23.6610 C   0  0  0  0  0  0  0  0  0  0  0  0
   10.1680   11.1190   23.3790 C   0  0  0  0  0  0  0  0  0  0  0  0
    9.4900   10.1510   24.0600 N   0  0  0  0  0  0  0  0  0  0  0  0
    8.5040   10.7290   24.8400 C   0  0  0  0  0  0  0  0  0  0  0  0
    7.5400   10.1420   25.7310 C   0  0  0  0  0  0  0  0  0  0  0  0
    6.6490   11.0630   26.3840 C   0  0  0  0  0  0  0  0  0  0  0  0
    6.6410   12.4460   26.2380 C   0  0  0  0  0  0  0  0  0  0  0  0
    7.6130   12.9180   25.3580 C   0  0  0  0  0  0  0  0  0  0  0  0
    8.5240   12.1070   24.6690 C   0  0  0  0  0  0  0  0  0  0  0  0
  1  2  1  0
  2  3  1  0
  3  4  2  0
  3  5  2  0
  3  6  1  0
  6  7  2  0
  7  8  1  0
  8  9  1  0
  9 10  2  0
 10 11  1  0
 11 12  2  0
 12 13  1  0
 13 14  2  0
 14  6  1  0
 14  9  1  0
A    1
 C1 
A    2
 N1 
A    3
 S1 
A    4
 O1 
A    5
 O2 
A    6
 C2 
A    7
 C3 
A    8
 N2 
A    9
 C4 
A   10
 C5 
A   11
 C6 
A   12
 C7 
A   13
 C8 
A   14
 C9 
M  END
>  <ref_pdb>  (136) 
x0554_0A

>  <ref_mols>  (136) 
x0451_0A,x0566_0A

>  <original SMILES>  (136) 
CNS(=O)(=O)c1c[nH]c2ccccc12

>  <rationale>  (136) 
info cluster #6 (rank 14); hbond:H21; 

>  <cluster_rank>  (136) 
14

>  <N_interactions>  (136) 
1

>  <N_interactions_lost>  (136) 
0

>  <∆∆G>  (136) 
-7.090323

>  <comRMSD>  (136) 
0.605376

>  <N_rotatable_bonds>  (136) 
3

>  <N_unconstrained_atoms>  (136) 
0

>  <N_constrained_atoms>  (136) 
15

>  <price>  (136) 
0

$$$$
Z2464967801
     RDKit          3D

 15 15  0  0  0  0  0  0  0  0999 V2000
    9.8230    8.6310   23.4960 C   0  0  0  0  0  0  0  0  0  0  0  0
    9.0690    9.8350   24.0180 C   0  0  0  0  0  0  0  0  0  0  0  0
    8.0280    9.6980   24.8680 N   0  0  0  0  0  0  0  0  0  0  0  0
    7.4200   10.8910   25.2650 C   0  0  0  0  0  0  0  0  0  0  0  0
    6.3280   10.9150   26.1430 C   0  0  0  0  0  0  0  0  0  0  0  0
    8.0800   11.9700   24.6430 C   0  0  0  0  0  0  0  0  0  0  0  0
    7.8640   13.4690   24.6810 C   0  0  0  0  0  0  0  0  0  0  0  0
    9.2230   14.1960   24.5610 C   0  0  0  0  0  0  0  0  0  0  0  0
    9.7680   14.0680   23.1950 N   0  0  0  0  0  0  0  0  0  0  0  0
   10.3480   15.1100   22.5080 C   0  0  0  0  0  0  0  0  0  0  0  0
   11.0510   15.9010   23.1020 O   0  0  0  0  0  0  0  0  0  0  0  0
   10.0600   15.2770   21.0490 C   0  0  2  0  0  0  0  0  0  0  0  0
   11.1360   14.6910   20.1100 C   0  0  0  0  0  0  0  0  0  0  0  0
    9.8750   16.7160   20.7840 N   0  0  0  0  0  0  0  0  0  0  0  0
    9.3940   11.4440   23.6530 S   0  0  0  0  0  0  0  0  0  0  0  0
  1  2  1  0
  2  3  2  0
  3  4  1  0
  4  5  1  0
  4  6  2  0
  6  7  1  0
  7  8  1  0
  8  9  1  0
  9 10  1  0
 10 11  2  0
 10 12  1  0
 12 13  1  6
 12 14  1  0
  6 15  1  0
 15  2  1  0
A    1
 C1 
A    2
 C2 
A    3
 N1 
A    4
 C3 
A    5
 C4 
A    6
 C5 
A    7
 C6 
A    8
 C7 
A    9
 N2 
A   10
 C8 
A   11
 O1 
A   12
 C9 
A   13
 C10
A   14
 N3 
A   15
 S1 
M  END
>  <ref_pdb>  (137) 
x0554_0A

>  <ref_mols>  (137) 
x0556_0A

>  <original SMILES>  (137) 
Cc1nc(C)c(CCNC(=O)[C@H](C)N)s1

>  <rationale>  (137) 
info cluster #7 (rank 14); hbond:S87+T126; hydroph_interaction:D109+V124; 

>  <cluster_rank>  (137) 
14

>  <N_interactions>  (137) 
5

>  <N_interactions_lost>  (137) 
1

>  <∆∆G>  (137) 
-8.728251

>  <comRMSD>  (137) 
0.772717

>  <N_rotatable_bonds>  (137) 
8

>  <N_unconstrained_atoms>  (137) 
1

>  <N_constrained_atoms>  (137) 
15

>  <price>  (137) 
0

$$$$
Z927395506
     RDKit          3D

 14 14  0  0  0  0  0  0  0  0999 V2000
   12.4920   15.2460   21.0860 C   0  0  0  0  0  0  0  0  0  0  0  0
   11.0520   15.6360   20.8850 C   0  0  0  0  0  0  0  0  0  0  0  0
   10.4080   14.7660   19.8510 C   0  0  0  0  0  0  0  0  0  0  0  0
   10.3330   15.6410   22.0740 N   0  0  0  0  0  0  0  0  0  0  0  0
   10.4810   14.6070   23.1120 C   0  0  0  0  0  0  0  0  0  0  0  0
   11.1430   14.7170   24.1240 O   0  0  0  0  0  0  0  0  0  0  0  0
    9.7520   13.4730   22.8040 C   0  0  2  0  0  0  0  0  0  0  0  0
    8.4340   14.1010   22.5020 N   0  0  0  0  0  0  0  0  0  0  0  0
    9.3940   12.3010   23.5430 C   0  0  0  0  0  0  0  0  0  0  0  0
   10.1010   10.9290   23.3230 C   0  0  0  0  0  0  0  0  0  0  0  0
    9.6340    9.6870   24.1140 C   0  0  0  0  0  0  0  0  0  0  0  0
    8.4830    9.9290   25.0810 C   0  0  0  0  0  0  0  0  0  0  0  0
    7.9780   11.2140   25.1600 C   0  0  0  0  0  0  0  0  0  0  0  0
    8.3640   12.3400   24.4720 C   0  0  0  0  0  0  0  0  0  0  0  0
  1  2  1  0
  2  3  1  0
  2  4  1  0
  4  5  1  0
  5  6  2  0
  5  7  1  0
  7  8  1  1
  7  9  1  0
  9 10  2  0
 10 11  1  0
 11 12  2  0
 12 13  1  0
 13 14  2  0
 14  9  1  0
A    1
 C1 
A    2
 C2 
A    3
 C3 
A    4
 N1 
A    5
 C4 
A    6
 O1 
A    7
 C5 
A    8
 N2 
A    9
 C6 
A   10
 C7 
A   11
 C8 
A   12
 C9 
A   13
 C10
A   14
 C11
M  END
>  <ref_pdb>  (138) 
x0554_0A

>  <ref_mols>  (138) 
x0566_0A

>  <original SMILES>  (138) 
CC(C)NC(=O)C(N)c1ccccc1

>  <rationale>  (138) 
info cluster #3 (rank 14); hbond:S87+G127; hydroph_interaction:Y89+Y90; 

>  <cluster_rank>  (138) 
14

>  <N_interactions>  (138) 
5

>  <N_interactions_lost>  (138) 
1

>  <∆∆G>  (138) 
-7.133079

>  <comRMSD>  (138) 
0.858199

>  <N_rotatable_bonds>  (138) 
6

>  <N_unconstrained_atoms>  (138) 
2

>  <N_constrained_atoms>  (138) 
14

>  <price>  (138) 
0

$$$$
Z5467076910
     RDKit          3D

 15 16  0  0  0  0  0  0  0  0999 V2000
    9.3680   16.3550   21.0860 C   0  0  0  0  0  0  0  0  0  0  0  0
   10.2110   15.1850   21.5660 C   0  0  0  0  0  0  0  0  0  0  0  0
   11.0220   14.5980   20.4210 C   0  0  0  0  0  0  0  0  0  0  0  0
    9.4810   14.1890   22.2310 N   0  0  0  0  0  0  0  0  0  0  0  0
   10.2300   13.1900   22.9930 C   0  0  0  0  0  0  0  0  0  0  0  0
   11.4450   13.2820   23.0820 O   0  0  0  0  0  0  0  0  0  0  0  0
    9.6210   12.0830   23.6380 C   0  0  0  0  0  0  0  0  0  0  0  0
   10.1260   10.8200   23.3380 C   0  0  0  0  0  0  0  0  0  0  0  0
    9.5750    9.5420   23.9770 C   0  0  0  0  0  0  0  0  0  0  0  0
    8.4380    9.6950   24.9720 C   0  0  0  0  0  0  0  0  0  0  0  0
    8.0010   10.9980   25.1940 C   0  0  0  0  0  0  0  0  0  0  0  0
    8.5630   12.1210   24.5630 C   0  0  0  0  0  0  0  0  0  0  0  0
    7.9090   13.2410   25.0050 O   0  0  0  0  0  0  0  0  0  0  0  0
    6.9570   12.8480   25.8870 C   0  0  0  0  0  0  0  0  0  0  0  0
    6.9720   11.4890   26.0370 C   0  0  0  0  0  0  0  0  0  0  0  0
  1  2  1  0
  2  3  1  0
  2  4  1  0
  4  5  1  0
  5  6  2  0
  5  7  1  0
  7  8  2  0
  8  9  1  0
  9 10  2  0
 10 11  1  0
 11 12  2  0
 12 13  1  0
 13 14  1  0
 14 15  2  0
 12  7  1  0
 15 11  1  0
A    1
 C1 
A    2
 C2 
A    3
 C3 
A    4
 N1 
A    5
 C4 
A    6
 O1 
A    7
 C5 
A    8
 C6 
A    9
 C7 
A   10
 C8 
A   11
 C9 
A   12
 C10
A   13
 O2 
A   14
 C11
A   15
 C12
M  END
>  <ref_pdb>  (139) 
x0554_0A

>  <ref_mols>  (139) 
x0566_0A

>  <original SMILES>  (139) 
CC(C)NC(=O)c1cccc2ccoc12

>  <rationale>  (139) 
info cluster #1 (rank 14); hbond:T126; hydroph_interaction:V84; 

>  <cluster_rank>  (139) 
14

>  <N_interactions>  (139) 
2

>  <N_interactions_lost>  (139) 
0

>  <∆∆G>  (139) 
-5.970746

>  <comRMSD>  (139) 
0.598217

>  <N_rotatable_bonds>  (139) 
4

>  <N_unconstrained_atoms>  (139) 
0

>  <N_constrained_atoms>  (139) 
16

>  <price>  (139) 
0

$$$$
Z2674052266
     RDKit          3D

 14 14  0  0  0  0  0  0  0  0999 V2000
   11.9160   14.3550   22.1200 C   0  0  0  0  0  0  0  0  0  0  0  0
   10.6450   13.7580   22.4200 O   0  0  0  0  0  0  0  0  0  0  0  0
   10.4170   13.5420   23.7610 C   0  0  0  0  0  0  0  0  0  0  0  0
   10.7450   14.3500   24.6170 O   0  0  0  0  0  0  0  0  0  0  0  0
    9.7430   12.2630   23.9860 C   0  0  0  0  0  0  0  0  0  0  0  0
    8.6010   11.9050   24.7170 C   0  0  0  0  0  0  0  0  0  0  0  0
    7.8240   12.8070   25.4520 N   0  0  0  0  0  0  0  0  0  0  0  0
    6.7750   13.5990   25.0170 C   0  0  0  0  0  0  0  0  0  0  0  0
    6.9010   13.9410   23.5480 C   0  0  0  0  0  0  0  0  0  0  0  0
    5.8250   14.0240   25.6990 O   0  0  0  0  0  0  0  0  0  0  0  0
    8.3480   10.5040   24.6080 C   0  0  0  0  0  0  0  0  0  0  0  0
    9.2660    9.8390   23.8340 C   0  0  0  0  0  0  0  0  0  0  0  0
    9.3300    8.3960   23.4900 C   0  0  0  0  0  0  0  0  0  0  0  0
   10.4470   10.8860   23.2350 S   0  0  0  0  0  0  0  0  0  0  0  0
  1  2  1  0
  2  3  1  0
  3  4  2  0
  3  5  1  0
  5  6  2  0
  6  7  1  0
  7  8  1  0
  8  9  1  0
  8 10  2  0
  6 11  1  0
 11 12  2  0
 12 13  1  0
 12 14  1  0
 14  5  1  0
A    1
 C1 
A    2
 O1 
A    3
 C2 
A    4
 O2 
A    5
 C3 
A    6
 C4 
A    7
 N1 
A    8
 C5 
A    9
 C6 
A   10
 O3 
A   11
 C7 
A   12
 C8 
A   13
 C9 
A   14
 S1 
M  END
>  <ref_pdb>  (140) 
x0554_0A

>  <ref_mols>  (140) 
x0451_0A,x0416_0A,x0416_0A

>  <original SMILES>  (140) 
COC(=O)c1sc(C)cc1NC(C)=O

>  <rationale>  (140) 
info cluster #4 (rank 14); hydroph_interaction:D109+V124; saltbridge:H21; 

>  <cluster_rank>  (140) 
14

>  <N_interactions>  (140) 
3

>  <N_interactions_lost>  (140) 
1

>  <∆∆G>  (140) 
-7.261765

>  <comRMSD>  (140) 
0.887263

>  <N_rotatable_bonds>  (140) 
5

>  <N_unconstrained_atoms>  (140) 
1

>  <N_constrained_atoms>  (140) 
15

>  <price>  (140) 
0

$$$$
Z4216637841
     RDKit          3D

 16 17  0  0  0  0  0  0  0  0999 V2000
   10.3580    9.2580   23.3610 C   0  0  0  0  0  0  0  0  0  0  0  0
    9.3530   10.2700   23.8990 C   0  0  0  0  0  0  0  0  0  0  0  0
    8.3600    9.7990   24.6810 N   0  0  0  0  0  0  0  0  0  0  0  0
    7.6430   10.8970   25.0040 N   0  0  0  0  0  0  0  0  0  0  0  0
    6.4890   10.7490   25.8610 C   0  0  0  0  0  0  0  0  0  0  0  0
    8.1440   12.0400   24.4450 C   0  0  0  0  0  0  0  0  0  0  0  0
    9.2430   11.6940   23.7450 C   0  0  0  0  0  0  0  0  0  0  0  0
    9.8980   12.7720   23.1230 N   0  0  0  0  0  0  0  0  0  0  0  0
   11.1720   13.0770   23.4710 C   0  0  0  0  0  0  0  0  0  0  0  0
   11.7330   12.8660   24.7630 O   0  0  0  0  0  0  0  0  0  0  0  0
   11.9410   13.7320   22.3540 C   0  0  0  0  0  0  0  0  0  0  0  0
   12.2950   14.9990   22.6870 C   0  0  0  0  0  0  0  0  0  0  0  0
   11.5960   16.0660   21.9720 N   0  0  0  0  0  0  0  0  0  0  0  0
    9.0580   13.9440   22.7330 C   0  0  0  0  0  0  0  0  0  0  0  0
    7.7860   13.9840   23.2890 C   0  0  0  0  0  0  0  0  0  0  0  0
    7.6660   13.2840   24.5520 O   0  0  0  0  0  0  0  0  0  0  0  0
  1  2  1  0
  2  3  2  0
  3  4  1  0
  4  5  1  0
  4  6  1  0
  6  7  2  0
  7  8  1  0
  8  9  1  0
  9 10  2  0
  9 11  1  0
 11 12  1  0
 12 13  1  0
  8 14  1  0
 14 15  1  0
 15 16  1  0
  7  2  1  0
 16  6  1  0
A    1
 C1 
A    2
 C2 
A    3
 N1 
A    4
 N2 
A    5
 C3 
A    6
 C4 
A    7
 C5 
A    8
 N3 
A    9
 C6 
A   10
 O1 
A   11
 C7 
A   12
 C8 
A   13
 N4 
A   14
 C9 
A   15
 C10
A   16
 O2 
M  END
>  <ref_pdb>  (141) 
x0554_0A

>  <ref_mols>  (141) 
x0310_0A,x0566_0A

>  <original SMILES>  (141) 
Cc1nn(C)c2c1N(C(=O)CCN)CCO2

>  <rationale>  (141) 
info cluster #9 (rank 14); hbond:S87; hydroph_interaction:V124; 

>  <cluster_rank>  (141) 
14

>  <N_interactions>  (141) 
3

>  <N_interactions_lost>  (141) 
1

>  <∆∆G>  (141) 
-6.63849

>  <comRMSD>  (141) 
0.88365

>  <N_rotatable_bonds>  (141) 
5

>  <N_unconstrained_atoms>  (141) 
0

>  <N_constrained_atoms>  (141) 
16

>  <price>  (141) 
0

$$$$
Z1022803852
     RDKit          3D

 15 16  0  0  0  0  0  0  0  0999 V2000
   10.3770   15.0820   20.4600 C   0  0  0  0  0  0  0  0  0  0  0  0
    9.6060   15.3540   21.7460 C   0  0  0  0  0  0  0  0  0  0  0  0
    9.1060   14.1730   22.2680 N   0  0  0  0  0  0  0  0  0  0  0  0
    9.8220   13.2360   23.0700 C   0  0  0  0  0  0  0  0  0  0  0  0
   11.2320   13.2420   23.3040 O   0  0  0  0  0  0  0  0  0  0  0  0
    9.2280   12.1340   23.7160 C   0  0  0  0  0  0  0  0  0  0  0  0
    9.5620   10.6880   23.2960 C   0  0  0  0  0  0  0  0  0  0  0  0
    8.8680    9.5590   23.9970 C   0  0  0  0  0  0  0  0  0  0  0  0
    9.2720    8.2070   23.4430 C   0  0  0  0  0  0  0  0  0  0  0  0
    7.9400    9.7180   25.0380 C   0  0  0  0  0  0  0  0  0  0  0  0
    7.7320   11.0590   25.3360 C   0  0  0  0  0  0  0  0  0  0  0  0
    6.8520   11.3770   26.3270 C   0  0  0  0  0  0  0  0  0  0  0  0
    6.8700   12.7300   26.3650 N   0  0  0  0  0  0  0  0  0  0  0  0
    7.7260   13.2640   25.4360 N   0  0  0  0  0  0  0  0  0  0  0  0
    8.2880   12.2030   24.7680 C   0  0  0  0  0  0  0  0  0  0  0  0
  1  2  1  0
  2  3  1  0
  3  4  1  0
  4  5  2  0
  4  6  1  0
  6  7  2  0
  7  8  1  0
  8  9  1  0
  8 10  2  0
 10 11  1  0
 11 12  2  0
 12 13  1  0
 13 14  1  0
 14 15  2  0
 15  6  1  0
 15 11  1  0
A    1
 C1 
A    2
 C2 
A    3
 N1 
A    4
 C3 
A    5
 O1 
A    6
 C4 
A    7
 C5 
A    8
 C6 
A    9
 C7 
A   10
 C8 
A   11
 C9 
A   12
 C10
A   13
 N2 
A   14
 N3 
A   15
 C11
M  END
>  <ref_pdb>  (142) 
x0554_0A

>  <ref_mols>  (142) 
x0566_0A,x0451_0A

>  <original SMILES>  (142) 
CCNC(=O)c1cc(C)cc2c[nH]nc12

>  <rationale>  (142) 
info cluster #8 (rank 15); hbond:T126; hydroph_interaction:D109+V124; 

>  <cluster_rank>  (142) 
15

>  <N_interactions>  (142) 
3

>  <N_interactions_lost>  (142) 
0

>  <∆∆G>  (142) 
-8.099565

>  <comRMSD>  (142) 
0.596394

>  <N_rotatable_bonds>  (142) 
4

>  <N_unconstrained_atoms>  (142) 
1

>  <N_constrained_atoms>  (142) 
14

>  <price>  (142) 
0

$$$$
PV_002173945509
     RDKit          3D

 15 16  0  0  0  0  0  0  0  0999 V2000
   11.9540   14.5500   22.3720 C   0  0  0  0  0  0  0  0  0  0  0  0
   11.1640   13.8000   23.4510 C   0  0  0  0  0  0  0  0  0  0  0  0
   11.2470   14.1020   24.6330 O   0  0  0  0  0  0  0  0  0  0  0  0
   10.4040   12.8010   22.8930 N   0  0  0  0  0  0  0  0  0  0  0  0
    9.7750   11.6580   23.5460 C   0  0  0  0  0  0  0  0  0  0  0  0
   10.4750   10.3900   23.0860 C   0  0  0  0  0  0  0  0  0  0  0  0
    9.9750    9.0900   23.6320 C   0  0  0  0  0  0  0  0  0  0  0  0
    8.8200    9.1690   24.5880 C   0  0  0  0  0  0  0  0  0  0  0  0
    8.2620   10.3970   24.9190 C   0  0  0  0  0  0  0  0  0  0  0  0
    8.6800   11.6450   24.4560 C   0  0  0  0  0  0  0  0  0  0  0  0
    7.9340   12.8540   24.9530 C   0  0  0  0  0  0  0  0  0  0  0  0
    6.8700   12.6160   25.9360 C   0  0  0  0  0  0  0  0  0  0  0  0
    6.5470   11.3430   26.4060 C   0  0  0  0  0  0  0  0  0  0  0  0
    5.7390   11.2020   27.3160 O   0  0  0  0  0  0  0  0  0  0  0  0
    7.2180   10.2230   25.7700 N   0  0  0  0  0  0  0  0  0  0  0  0
  1  2  1  0
  2  3  2  0
  2  4  1  0
  4  5  1  0
  5  6  2  0
  6  7  1  0
  7  8  2  0
  8  9  1  0
  9 10  2  0
 10 11  1  0
 11 12  2  0
 12 13  1  0
 13 14  2  0
 13 15  1  0
 10  5  1  0
 15  9  1  0
A    1
 C1 
A    2
 C2 
A    3
 O1 
A    4
 N1 
A    5
 C3 
A    6
 C4 
A    7
 C5 
A    8
 C6 
A    9
 C7 
A   10
 C8 
A   11
 C9 
A   12
 C10
A   13
 C11
A   14
 O2 
A   15
 N2 
M  END
>  <ref_pdb>  (143) 
x0554_0A

>  <ref_mols>  (143) 
x0554_0A,x0451_0A

>  <original SMILES>  (143) 
CC(=O)Nc1cccc2[nH]c(=O)ccc12

>  <rationale>  (143) 
info cluster #5 (rank 15); hbond:S105+S125; hydroph_interaction:Y89; 

>  <cluster_rank>  (143) 
15

>  <N_interactions>  (143) 
3

>  <N_interactions_lost>  (143) 
1

>  <∆∆G>  (143) 
-6.474183

>  <comRMSD>  (143) 
0.826689

>  <N_rotatable_bonds>  (143) 
2

>  <N_unconstrained_atoms>  (143) 
1

>  <N_constrained_atoms>  (143) 
16

>  <price>  (143) 
0

$$$$
Z3505465193
     RDKit          3D

 17 19  0  0  0  0  0  0  0  0999 V2000
   12.5660   14.6870   22.0370 C   0  0  0  0  0  0  0  0  0  0  0  0
   11.2230   15.2230   22.4070 C   0  0  2  0  0  0  0  0  0  0  0  0
   10.4230   14.1650   22.7610 N   0  0  0  0  0  0  0  0  0  0  0  0
   10.8580   13.0470   23.4910 C   0  0  0  0  0  0  0  0  0  0  0  0
   10.0110   11.9400   23.7980 C   0  0  0  0  0  0  0  0  0  0  0  0
   10.1890   10.6930   23.2850 C   0  0  0  0  0  0  0  0  0  0  0  0
    9.2190    9.8700   23.7880 N   0  0  0  0  0  0  0  0  0  0  0  0
    9.0780    8.4670   23.4800 C   0  0  0  0  0  0  0  0  0  0  0  0
    8.4190   10.6110   24.6340 C   0  0  0  0  0  0  0  0  0  0  0  0
    7.2430   10.0800   25.4010 C   0  0  0  0  0  0  0  0  0  0  0  0
    6.5390   11.1250   26.2480 C   0  0  0  0  0  0  0  0  0  0  0  0
    7.0430   12.4260   26.2320 C   0  0  0  0  0  0  0  0  0  0  0  0
    8.1670   12.8230   25.4760 C   0  0  0  0  0  0  0  0  0  0  0  0
    8.8670   11.9010   24.6650 C   0  0  0  0  0  0  0  0  0  0  0  0
   10.6080   15.8860   21.2410 C   0  0  0  0  0  0  0  0  0  0  0  0
   10.2760   15.1980   20.0230 C   0  0  0  0  0  0  0  0  0  0  0  0
    9.1020   15.5030   20.7780 C   0  0  0  0  0  0  0  0  0  0  0  0
  2  1  1  6
  2  3  1  0
  3  4  1  0
  4  5  1  0
  5  6  2  0
  6  7  1  0
  7  8  1  0
  7  9  1  0
  9 10  2  0
 10 11  1  0
 11 12  2  0
 12 13  1  0
 13 14  2  0
  2 15  1  0
 15 16  1  0
 16 17  1  0
 14  5  1  0
 14  9  1  0
 17 15  1  0
A    1
 C1 
A    2
 C2 
A    3
 N1 
A    4
 C3 
A    5
 C4 
A    6
 C5 
A    7
 N2 
A    8
 C6 
A    9
 C7 
A   10
 C8 
A   11
 C9 
A   12
 C10
A   13
 C11
A   14
 C12
A   15
 C13
A   16
 C14
A   17
 C15
M  END
>  <ref_pdb>  (144) 
x0554_0A

>  <ref_mols>  (144) 
x0451_0A

>  <original SMILES>  (144) 
CC(NCc1cn(C)c2ccccc12)C1CC1

>  <rationale>  (144) 
info cluster #2 (rank 15); hydroph_interaction:Y89+Y90+V84; 

>  <cluster_rank>  (144) 
15

>  <N_interactions>  (144) 
3

>  <N_interactions_lost>  (144) 
0

>  <∆∆G>  (144) 
-8.230431

>  <comRMSD>  (144) 
0.799963

>  <N_rotatable_bonds>  (144) 
6

>  <N_unconstrained_atoms>  (144) 
2

>  <N_constrained_atoms>  (144) 
17

>  <price>  (144) 
0

$$$$
Z5288630820
     RDKit          3D

 14 15  0  0  0  0  0  0  0  0999 V2000
   11.8780   14.4670   21.9340 C   0  0  0  0  0  0  0  0  0  0  0  0
   10.9100   13.4430   22.2740 N   0  0  0  0  0  0  0  0  0  0  0  0
   10.3800   13.4220   23.5550 C   0  0  0  0  0  0  0  0  0  0  0  0
   10.6490   14.3180   24.3400 O   0  0  0  0  0  0  0  0  0  0  0  0
    9.4430   12.3270   24.0330 C   0  0  0  0  0  0  0  0  0  0  0  0
    8.2540   12.7560   24.8090 C   0  0  0  0  0  0  0  0  0  0  0  0
    7.3570   11.8210   25.2930 C   0  0  0  0  0  0  0  0  0  0  0  0
    7.5700   10.4310   25.0460 C   0  0  0  0  0  0  0  0  0  0  0  0
    6.6870    9.5720   25.5350 F   0  0  0  0  0  0  0  0  0  0  0  0
    8.6620   10.0050   24.3250 C   0  0  0  0  0  0  0  0  0  0  0  0
    9.6160   10.9330   23.8080 C   0  0  0  0  0  0  0  0  0  0  0  0
   10.8720   10.1260   22.9660 S   0  0  0  0  0  0  0  0  0  0  0  0
   10.2530    8.6030   23.2310 C   0  0  0  0  0  0  0  0  0  0  0  0
    8.9920    8.6640   24.0110 C   0  0  0  0  0  0  0  0  0  0  0  0
  1  2  1  0
  2  3  1  0
  3  4  2  0
  3  5  1  0
  5  6  2  0
  6  7  1  0
  7  8  2  0
  8  9  1  0
  8 10  1  0
 10 11  2  0
 11 12  1  0
 12 13  1  0
 13 14  2  0
 11  5  1  0
 14 10  1  0
A    1
 C1 
A    2
 N1 
A    3
 C2 
A    4
 O1 
A    5
 C3 
A    6
 C4 
A    7
 C5 
A    8
 C6 
A    9
 F1 
A   10
 C7 
A   11
 C8 
A   12
 S1 
A   13
 C9 
A   14
 C10
M  END
>  <ref_pdb>  (145) 
x0554_0A

>  <ref_mols>  (145) 
x0451_0A,x0554_0A

>  <original SMILES>  (145) 
CNC(=O)c1ccc(F)c2ccsc12

>  <rationale>  (145) 
info cluster #0 (rank 15); hbond:S125; hydroph_interaction:D109; 

>  <cluster_rank>  (145) 
15

>  <N_interactions>  (145) 
2

>  <N_interactions_lost>  (145) 
1

>  <∆∆G>  (145) 
-6.714526

>  <comRMSD>  (145) 
0.87278

>  <N_rotatable_bonds>  (145) 
2

>  <N_unconstrained_atoms>  (145) 
3

>  <N_constrained_atoms>  (145) 
12

>  <price>  (145) 
0

$$$$
Z458902276
     RDKit          3D

 13 14  0  0  0  0  0  0  0  0999 V2000
    5.8000   13.4050   27.7650 N   0  0  0  0  0  0  0  0  0  0  0  0
    5.9260   13.6500   26.4250 C   0  0  0  0  0  0  0  0  0  0  0  0
    5.2730   14.5330   25.8870 O   0  0  0  0  0  0  0  0  0  0  0  0
    6.9170   12.7300   25.7530 C   0  0  0  0  0  0  0  0  0  0  0  0
    6.9430   11.3810   25.9070 C   0  0  0  0  0  0  0  0  0  0  0  0
    5.9270   10.3780   26.8340 Cl  0  0  0  0  0  0  0  0  0  0  0  0
    8.0430   10.9880   25.0900 C   0  0  0  0  0  0  0  0  0  0  0  0
    8.5550    9.6490   24.8710 C   0  0  0  0  0  0  0  0  0  0  0  0
    9.6370    9.4230   24.0230 C   0  0  0  0  0  0  0  0  0  0  0  0
   10.2670   10.6200   23.3480 C   0  0  0  0  0  0  0  0  0  0  0  0
    9.7570   11.9030   23.5900 C   0  0  0  0  0  0  0  0  0  0  0  0
    8.6760   12.0600   24.4380 C   0  0  0  0  0  0  0  0  0  0  0  0
    8.0070   13.1770   24.8250 N   0  0  0  0  0  0  0  0  0  0  0  0
  1  2  1  0
  2  3  2  0
  2  4  1  0
  4  5  2  0
  5  6  1  0
  5  7  1  0
  7  8  2  0
  8  9  1  0
  9 10  2  0
 10 11  1  0
 11 12  2  0
 12 13  1  0
 13  4  1  0
 12  7  1  0
A    1
 N1 
A    2
 C1 
A    3
 O1 
A    4
 C2 
A    5
 C3 
A    6
CL1 
A    7
 C4 
A    8
 C5 
A    9
 C6 
A   10
 C7 
A   11
 C8 
A   12
 C9 
A   13
 N2 
M  END
>  <ref_pdb>  (146) 
x0554_0A

>  <ref_mols>  (146) 
x0554_0A,x0416_0A

>  <original SMILES>  (146) 
NC(=O)c1[nH]c2ccccc2c1Cl

>  <rationale>  (146) 
info cluster #6 (rank 15); halogenbond:S105; 

>  <cluster_rank>  (146) 
15

>  <N_interactions>  (146) 
1

>  <N_interactions_lost>  (146) 
0

>  <∆∆G>  (146) 
-4.267307

>  <comRMSD>  (146) 
0.622671

>  <N_rotatable_bonds>  (146) 
1

>  <N_unconstrained_atoms>  (146) 
2

>  <N_constrained_atoms>  (146) 
12

>  <price>  (146) 
0

$$$$
Z1688526979
     RDKit          3D

 15 15  0  0  0  0  0  0  0  0999 V2000
    6.4740   10.4230   26.0090 C   0  0  0  0  0  0  0  0  0  0  0  0
    7.6650   10.5710   25.1070 C   0  0  0  0  0  0  0  0  0  0  0  0
    8.3500    9.3650   24.5940 C   0  0  0  0  0  0  0  0  0  0  0  0
    9.4290    9.4810   23.7660 C   0  0  0  0  0  0  0  0  0  0  0  0
   10.2380    8.4700   23.1440 C   0  0  0  0  0  0  0  0  0  0  0  0
    9.8500   10.7400   23.4460 C   0  0  0  0  0  0  0  0  0  0  0  0
    9.2660   11.8990   23.8930 C   0  0  0  0  0  0  0  0  0  0  0  0
    9.7870   13.0620   23.5080 N   0  0  0  0  0  0  0  0  0  0  0  0
    8.9750   13.9230   22.6820 C   0  0  0  0  0  0  0  0  0  0  0  0
   11.0500   13.5000   23.8750 C   0  0  0  0  0  0  0  0  0  0  0  0
   11.3110   13.6940   25.0570 O   0  0  0  0  0  0  0  0  0  0  0  0
   12.0960   13.7300   22.8150 C   0  0  0  0  0  0  0  0  0  0  0  0
   11.7910   15.1120   22.3230 C   0  0  0  0  0  0  0  0  0  0  0  0
   11.5560   16.2040   22.0250 N   0  0  0  0  0  0  0  0  0  0  0  0
    8.1550   11.8200   24.7320 C   0  0  0  0  0  0  0  0  0  0  0  0
  1  2  1  0
  2  3  2  0
  3  4  1  0
  4  5  1  0
  4  6  2  0
  6  7  1  0
  7  8  1  0
  8  9  1  0
  8 10  1  0
 10 11  2  0
 10 12  1  0
 12 13  1  0
 13 14  3  0
  7 15  2  0
 15  2  1  0
A    1
 C1 
A    2
 C2 
A    3
 C3 
A    4
 C4 
A    5
 C5 
A    6
 C6 
A    7
 C7 
A    8
 N1 
A    9
 C8 
A   10
 C9 
A   11
 O1 
A   12
 C10
A   13
 C11
A   14
 N2 
A   15
 C12
M  END
>  <ref_pdb>  (147) 
x0554_0A

>  <ref_mols>  (147) 
x0566_0A,x0310_0A

>  <original SMILES>  (147) 
Cc1cc(C)cc(N(C)C(=O)CC#N)c1

>  <rationale>  (147) 
info cluster #7 (rank 15); hbond:S87; hydroph_interaction:Y89+D109+V124; 

>  <cluster_rank>  (147) 
15

>  <N_interactions>  (147) 
4

>  <N_interactions_lost>  (147) 
2

>  <∆∆G>  (147) 
-8.99698

>  <comRMSD>  (147) 
0.914483

>  <N_rotatable_bonds>  (147) 
5

>  <N_unconstrained_atoms>  (147) 
1

>  <N_constrained_atoms>  (147) 
16

>  <price>  (147) 
0

$$$$
PV_002200253723
     RDKit          3D

 11 11  0  0  0  0  0  0  0  0999 V2000
    6.2420   11.4760   26.3520 C   0  0  0  0  0  0  0  0  0  0  0  0
    7.4280   11.2460   25.4390 C   0  0  0  0  0  0  0  0  0  0  0  0
    7.8410    9.7910   25.4120 C   0  0  0  0  0  0  0  0  0  0  0  0
    9.0030    9.4880   24.5190 C   0  0  0  0  0  0  0  0  0  0  0  0
    9.6730   10.5440   23.7470 C   0  0  0  0  0  0  0  0  0  0  0  0
   10.7990   10.1070   22.9200 C   0  0  0  0  0  0  0  0  0  0  0  0
    9.1920   11.8600   23.8680 C   0  0  0  0  0  0  0  0  0  0  0  0
    9.8310   13.0310   23.1030 C   0  0  0  0  0  0  0  0  0  0  0  0
    9.0080   13.9970   22.5740 N   0  0  0  0  0  0  0  0  0  0  0  0
   11.1910   13.0800   22.9670 O   0  0  0  0  0  0  0  0  0  0  0  0
    8.0990   12.2010   24.6900 C   0  0  0  0  0  0  0  0  0  0  0  0
  1  2  1  0
  2  3  2  0
  3  4  1  0
  4  5  2  0
  5  6  1  0
  5  7  1  0
  7  8  1  0
  8  9  1  0
  8 10  2  0
  7 11  2  0
 11  2  1  0
A    1
 C1 
A    2
 C2 
A    3
 C3 
A    4
 C4 
A    5
 C5 
A    6
 C6 
A    7
 C7 
A    8
 C8 
A    9
 N1 
A   10
 O1 
A   11
 C9 
M  END
>  <ref_pdb>  (148) 
x0554_0A

>  <ref_mols>  (148) 
x0566_0A,x0310_0A

>  <original SMILES>  (148) 
Cc1ccc(C)c(C(N)=O)c1

>  <rationale>  (148) 
info cluster #1 (rank 15); hbond:T126; hydroph_interaction:A110; 

>  <cluster_rank>  (148) 
15

>  <N_interactions>  (148) 
2

>  <N_interactions_lost>  (148) 
0

>  <∆∆G>  (148) 
-5.276678

>  <comRMSD>  (148) 
0.871093

>  <N_rotatable_bonds>  (148) 
3

>  <N_unconstrained_atoms>  (148) 
1

>  <N_constrained_atoms>  (148) 
13

>  <price>  (148) 
0

$$$$
Z2783954099
     RDKit          3D

 13 13  0  0  0  0  0  0  0  0999 V2000
   11.7340   15.0990   19.4850 C   0  0  0  0  0  0  0  0  0  0  0  0
   11.1730   15.4610   20.8400 C   0  0  1  0  0  0  0  0  0  0  0  0
   10.3780   16.7140   20.7840 N   0  0  0  0  0  0  0  0  0  0  0  0
   10.3550   14.3570   21.4630 C   0  0  0  0  0  0  0  0  0  0  0  0
   10.7950   13.8930   22.8550 C   0  0  0  0  0  0  0  0  0  0  0  0
   10.9980   14.6660   23.7850 O   0  0  0  0  0  0  0  0  0  0  0  0
   10.9290   12.4320   22.8860 N   0  0  0  0  0  0  0  0  0  0  0  0
   10.0160   11.5920   23.5640 C   0  0  0  0  0  0  0  0  0  0  0  0
   10.0720   10.1980   23.3490 C   0  0  0  0  0  0  0  0  0  0  0  0
    9.2050    9.3190   23.9970 C   0  0  0  0  0  0  0  0  0  0  0  0
    8.2220    9.9340   24.9280 C   0  0  0  0  0  0  0  0  0  0  0  0
    8.1630   11.2880   25.1290 C   0  0  0  0  0  0  0  0  0  0  0  0
    9.0560   12.1190   24.4500 C   0  0  0  0  0  0  0  0  0  0  0  0
  2  1  1  6
  2  3  1  0
  2  4  1  0
  4  5  1  0
  5  6  2  0
  5  7  1  0
  7  8  1  0
  8  9  2  0
  9 10  1  0
 10 11  2  0
 11 12  1  0
 12 13  2  0
 13  8  1  0
A    1
 C1 
A    2
 C2 
A    3
 N1 
A    4
 C3 
A    5
 C4 
A    6
 O1 
A    7
 N2 
A    8
 C5 
A    9
 C6 
A   10
 C7 
A   11
 C8 
A   12
 C9 
A   13
 C10
M  END
>  <ref_pdb>  (149) 
x0554_0A

>  <ref_mols>  (149) 
x0554_0A

>  <original SMILES>  (149) 
C[C@@H](N)CC(=O)Nc1ccccc1

>  <rationale>  (149) 
info cluster #3 (rank 15); hbond:S87+S125; hydroph_interaction:Y90; 

>  <cluster_rank>  (149) 
15

>  <N_interactions>  (149) 
4

>  <N_interactions_lost>  (149) 
2

>  <∆∆G>  (149) 
-8.090734

>  <comRMSD>  (149) 
0.890473

>  <N_rotatable_bonds>  (149) 
5

>  <N_unconstrained_atoms>  (149) 
2

>  <N_constrained_atoms>  (149) 
13

>  <price>  (149) 
0

$$$$
Z4226022352
     RDKit          3D

 20 21  0  0  0  0  0  0  0  0999 V2000
   11.2100   14.7110   20.0270 C   0  0  0  0  0  0  0  0  0  0  0  0
   10.2050   15.1850   20.9400 O   0  0  0  0  0  0  0  0  0  0  0  0
   10.5650   15.1260   22.2590 C   0  0  0  0  0  0  0  0  0  0  0  0
   11.0050   16.0860   22.8550 O   0  0  0  0  0  0  0  0  0  0  0  0
   10.3940   13.8540   22.9820 C   0  0  0  0  0  0  0  0  0  0  0  0
    9.1670   13.8110   23.6470 C   0  0  0  0  0  0  0  0  0  0  0  0
    8.8420   12.5540   24.1080 C   0  0  0  0  0  0  0  0  0  0  0  0
    9.5940   11.4000   23.5790 C   0  0  0  0  0  0  0  0  0  0  0  0
    9.2500   10.0490   24.0710 C   0  0  0  0  0  0  0  0  0  0  0  0
    9.9550    8.8340   23.5800 C   0  0  0  0  0  0  0  0  0  0  0  0
    8.1470   10.0070   25.0950 C   0  0  0  0  0  0  0  0  0  0  0  0
    7.4830   11.0970   25.5450 N   0  0  0  0  0  0  0  0  0  0  0  0
    7.8120   12.3390   25.0710 C   0  0  0  0  0  0  0  0  0  0  0  0
    7.0990   13.4520   25.5640 N   0  0  0  0  0  0  0  0  0  0  0  0
    5.6990   13.5030   25.9580 C   0  0  0  0  0  0  0  0  0  0  0  0
    5.2470   12.2250   26.6540 C   0  0  1  0  0  0  0  0  0  0  0  0
    6.0340   11.9040   27.9020 C   0  0  0  0  0  0  0  0  0  0  0  0
    5.4780   12.6660   29.0970 C   0  0  0  0  0  0  0  0  0  0  0  0
    3.9630   12.5440   29.0340 C   0  0  0  0  0  0  0  0  0  0  0  0
    3.5310   12.3300   27.2850 S   0  0  0  0  0  0  0  0  0  0  0  0
  1  2  1  0
  2  3  1  0
  3  4  2  0
  3  5  1  0
  5  6  1  0
  6  7  1  0
  7  8  2  0
  8  9  1  0
  9 10  1  0
  9 11  2  0
 11 12  1  0
 12 13  2  0
 13 14  1  0
 14 15  1  0
 16 15  1  1
 16 17  1  0
 17 18  1  0
 18 19  1  0
 19 20  1  0
 13  7  1  0
 20 16  1  0
A    1
 C1 
A    2
 O1 
A    3
 C2 
A    4
 O2 
A    5
 C3 
A    6
 C4 
A    7
 C5 
A    8
 C6 
A    9
 C7 
A   10
 C8 
A   11
 C9 
A   12
 N1 
A   13
 C10
A   14
 N2 
A   15
 C11
A   16
 C12
A   17
 C13
A   18
 C14
A   19
 C15
A   20
 S1 
M  END
>  <ref_pdb>  (150) 
x0554_0A

>  <ref_mols>  (150) 
x0416_0A

>  <original SMILES>  (150) 
COC(=O)CCc1cc(C)cnc1NCC1CCCS1

>  <rationale>  (150) 
info cluster #4 (rank 15); hbond:S87; hydroph_interaction:P107+D109+V124; saltbridge:H21; 

>  <cluster_rank>  (150) 
15

>  <N_interactions>  (150) 
5

>  <N_interactions_lost>  (150) 
1

>  <∆∆G>  (150) 
-7.431845

>  <comRMSD>  (150) 
0.567281

>  <N_rotatable_bonds>  (150) 
8

>  <N_unconstrained_atoms>  (150) 
2

>  <N_constrained_atoms>  (150) 
19

>  <price>  (150) 
0

$$$$
Z4427077037
     RDKit          3D

 16 17  0  0  0  0  0  0  0  0999 V2000
   10.5860   14.9850   19.2100 C   0  0  0  0  0  0  0  0  0  0  0  0
   10.4080   15.0660   20.6950 C   0  0  2  0  0  0  0  0  0  0  0  0
   10.1670   16.3590   21.1260 N   0  0  0  0  0  0  0  0  0  0  0  0
   11.6690   14.4510   21.3050 C   0  0  1  0  0  0  0  0  0  0  0  0
   12.5200   15.4920   21.9920 C   0  0  0  0  0  0  0  0  0  0  0  0
   11.4020   13.3950   22.2960 N   0  0  0  0  0  0  0  0  0  0  0  0
   10.2940   13.6990   23.1820 C   0  0  0  0  0  0  0  0  0  0  0  0
    9.6930   12.3930   23.7230 C   0  0  0  0  0  0  0  0  0  0  0  0
   10.2660   11.0530   23.2980 C   0  0  0  0  0  0  0  0  0  0  0  0
    9.5070   10.1210   23.9570 N   0  0  0  0  0  0  0  0  0  0  0  0
    8.5340   10.7400   24.7420 C   0  0  0  0  0  0  0  0  0  0  0  0
    7.4880   10.1650   25.6360 C   0  0  0  0  0  0  0  0  0  0  0  0
    6.6440   10.9520   26.2980 C   0  0  0  0  0  0  0  0  0  0  0  0
    6.7540   12.3190   26.1500 C   0  0  0  0  0  0  0  0  0  0  0  0
    7.7120   12.9220   25.3370 C   0  0  0  0  0  0  0  0  0  0  0  0
    8.6280   12.1310   24.6100 C   0  0  0  0  0  0  0  0  0  0  0  0
  2  1  1  6
  2  3  1  0
  2  4  1  0
  4  5  1  1
  4  6  1  0
  6  7  1  0
  7  8  1  0
  8  9  2  0
  9 10  1  0
 10 11  1  0
 11 12  2  0
 12 13  1  0
 13 14  2  0
 14 15  1  0
 15 16  2  0
 16  8  1  0
 16 11  1  0
A    1
 C1 
A    2
 C2 
A    3
 N1 
A    4
 C3 
A    5
 C4 
A    6
 N2 
A    7
 C5 
A    8
 C6 
A    9
 C7 
A   10
 N3 
A   11
 C8 
A   12
 C9 
A   13
 C10
A   14
 C11
A   15
 C12
A   16
 C13
M  END
>  <ref_pdb>  (151) 
x0554_0A

>  <ref_mols>  (151) 
x0451_0A

>  <original SMILES>  (151) 
CC(N)C(C)NCc1c[nH]c2ccccc12

>  <rationale>  (151) 
info cluster #9 (rank 15); hbond:H21+S87; hydroph_interaction:Y89; 

>  <cluster_rank>  (151) 
15

>  <N_interactions>  (151) 
3

>  <N_interactions_lost>  (151) 
1

>  <∆∆G>  (151) 
-7.531891

>  <comRMSD>  (151) 
0.752878

>  <N_rotatable_bonds>  (151) 
7

>  <N_unconstrained_atoms>  (151) 
1

>  <N_constrained_atoms>  (151) 
18

>  <price>  (151) 
0

$$$$
Z198195790
     RDKit          3D

 12 12  0  0  0  0  0  0  0  0999 V2000
   11.1270   12.3000   23.1160 C   0  0  0  0  0  0  0  0  0  0  0  0
   10.0700   11.3640   23.6570 C   0  0  0  0  0  0  0  0  0  0  0  0
    9.9610    9.9270   23.2120 C   0  0  0  0  0  0  0  0  0  0  0  0
    8.9420    9.1600   23.7820 C   0  0  0  0  0  0  0  0  0  0  0  0
    8.7920    7.6970   23.3510 C   0  0  0  0  0  0  0  0  0  0  0  0
    8.0540    9.7240   24.7420 C   0  0  0  0  0  0  0  0  0  0  0  0
    8.1200   11.0520   25.1760 C   0  0  0  0  0  0  0  0  0  0  0  0
    7.2520   11.6280   26.1040 N   0  0  0  0  0  0  0  0  0  0  0  0
    6.9870   12.9620   26.0920 C   0  0  0  0  0  0  0  0  0  0  0  0
    7.0700   13.4590   24.7230 N   0  0  0  0  0  0  0  0  0  0  0  0
    6.7060   13.7160   27.0150 O   0  0  0  0  0  0  0  0  0  0  0  0
    9.0950   11.9090   24.6750 C   0  0  0  0  0  0  0  0  0  0  0  0
  1  2  1  0
  2  3  2  0
  3  4  1  0
  4  5  1  0
  4  6  2  0
  6  7  1  0
  7  8  1  0
  8  9  1  0
  9 10  1  0
  9 11  2  0
  7 12  2  0
 12  2  1  0
A    1
 C1 
A    2
 C2 
A    3
 C3 
A    4
 C4 
A    5
 C5 
A    6
 C6 
A    7
 C7 
A    8
 N1 
A    9
 C8 
A   10
 N2 
A   11
 O1 
A   12
 C9 
M  END
>  <ref_pdb>  (152) 
x0554_0A

>  <ref_mols>  (152) 
x0554_0A,x0310_0A

>  <original SMILES>  (152) 
Cc1cc(C)cc(NC(N)=O)c1

>  <rationale>  (152) 
info cluster #8 (rank 16); hbond:G127; hydroph_interaction:D109+V124; 

>  <cluster_rank>  (152) 
16

>  <N_interactions>  (152) 
3

>  <N_interactions_lost>  (152) 
0

>  <∆∆G>  (152) 
-7.580252

>  <comRMSD>  (152) 
0.733362

>  <N_rotatable_bonds>  (152) 
3

>  <N_unconstrained_atoms>  (152) 
2

>  <N_constrained_atoms>  (152) 
12

>  <price>  (152) 
0

$$$$
PV_002796953223
     RDKit          3D

 12 12  0  0  0  0  0  0  0  0999 V2000
   11.8520   14.2380   22.3700 C   0  0  0  0  0  0  0  0  0  0  0  0
   11.1130   13.4900   23.4650 C   0  0  0  0  0  0  0  0  0  0  0  0
   11.0590   13.9400   24.6010 O   0  0  0  0  0  0  0  0  0  0  0  0
   10.5500   12.3100   23.0270 N   0  0  0  0  0  0  0  0  0  0  0  0
    9.5980   11.4920   23.6990 C   0  0  0  0  0  0  0  0  0  0  0  0
    8.5310   11.9990   24.4430 C   0  0  0  0  0  0  0  0  0  0  0  0
    8.2950   13.4960   24.5840 C   0  0  0  0  0  0  0  0  0  0  0  0
    7.6140   11.2370   25.1010 N   0  0  0  0  0  0  0  0  0  0  0  0
    7.7370    9.9080   25.0270 C   0  0  0  0  0  0  0  0  0  0  0  0
    8.7390    9.2950   24.3220 C   0  0  0  0  0  0  0  0  0  0  0  0
    9.6590   10.0940   23.6680 C   0  0  0  0  0  0  0  0  0  0  0  0
   10.6320    9.1780   22.9950 C   0  0  0  0  0  0  0  0  0  0  0  0
  1  2  1  0
  2  3  2  0
  2  4  1  0
  4  5  1  0
  5  6  2  0
  6  7  1  0
  6  8  1  0
  8  9  2  0
  9 10  1  0
 10 11  2  0
 11 12  1  0
 11  5  1  0
A    1
 C1 
A    2
 C2 
A    3
 O1 
A    4
 N1 
A    5
 C3 
A    6
 C4 
A    7
 C5 
A    8
 N2 
A    9
 C6 
A   10
 C7 
A   11
 C8 
A   12
 C9 
M  END
>  <ref_pdb>  (153) 
x0554_0A

>  <ref_mols>  (153) 
x0554_0A,x0310_0A

>  <original SMILES>  (153) 
CC(=O)Nc1c(C)ccnc1C

>  <rationale>  (153) 
info cluster #5 (rank 16); hbond:S125; hydroph_interaction:Y89+A110+V124; 

>  <cluster_rank>  (153) 
16

>  <N_interactions>  (153) 
4

>  <N_interactions_lost>  (153) 
2

>  <∆∆G>  (153) 
-7.903374

>  <comRMSD>  (153) 
0.660126

>  <N_rotatable_bonds>  (153) 
4

>  <N_unconstrained_atoms>  (153) 
1

>  <N_constrained_atoms>  (153) 
13

>  <price>  (153) 
0

$$$$
PV_002582704817
     RDKit          3D

 14 14  0  0  0  0  0  0  0  0999 V2000
   12.2990   14.2650   22.0940 C   0  0  0  0  0  0  0  0  0  0  0  0
   10.8710   14.2440   22.3120 N   0  0  0  0  0  0  0  0  0  0  0  0
   10.4200   14.0070   23.6400 C   0  0  0  0  0  0  0  0  0  0  0  0
   10.6180   14.8600   24.5040 O   0  0  0  0  0  0  0  0  0  0  0  0
    9.6970   12.6130   23.8070 C   0  0  0  0  0  0  0  0  0  0  0  0
   10.3590   11.3530   23.2620 C   0  0  0  0  0  0  0  0  0  0  0  0
    9.4820   10.3060   23.5650 N   0  0  0  0  0  0  0  0  0  0  0  0
    9.7110    8.9220   23.2200 C   0  0  0  0  0  0  0  0  0  0  0  0
    8.3690   10.7800   24.2370 C   0  0  0  0  0  0  0  0  0  0  0  0
    8.4900   12.1510   24.3840 C   0  0  0  0  0  0  0  0  0  0  0  0
   10.0770   15.0670   21.3370 C   0  0  0  0  0  0  0  0  0  0  0  0
   10.3530   14.7120   20.0150 C   0  0  0  0  0  0  0  0  0  0  0  0
    8.5940   15.1130   21.7420 C   0  0  0  0  0  0  0  0  0  0  0  0
   10.4230   16.5440   21.3090 C   0  0  0  0  0  0  0  0  0  0  0  0
  1  2  1  0
  2  3  1  0
  3  4  2  0
  3  5  1  0
  5  6  2  0
  6  7  1  0
  7  8  1  0
  7  9  1  0
  9 10  2  0
  2 11  1  0
 11 12  1  0
 11 13  1  0
 11 14  1  0
 10  5  1  0
A    1
 C1 
A    2
 N1 
A    3
 C2 
A    4
 O1 
A    5
 C3 
A    6
 C4 
A    7
 N2 
A    8
 C5 
A    9
 C6 
A   10
 C7 
A   11
 C8 
A   12
 C9 
A   13
 C10
A   14
 C11
M  END
>  <ref_pdb>  (154) 
x0554_0A

>  <ref_mols>  (154) 
x0451_0A

>  <original SMILES>  (154) 
CN(C(=O)c1ccn(C)c1)C(C)(C)C

>  <rationale>  (154) 
info cluster #2 (rank 16); hydroph_interaction:Y90; 

>  <cluster_rank>  (154) 
16

>  <N_interactions>  (154) 
1

>  <N_interactions_lost>  (154) 
0

>  <∆∆G>  (154) 
-8.66008

>  <comRMSD>  (154) 
0.517569

>  <N_rotatable_bonds>  (154) 
3

>  <N_unconstrained_atoms>  (154) 
1

>  <N_constrained_atoms>  (154) 
13

>  <price>  (154) 
0

$$$$
Z116821722
     RDKit          3D

 15 16  0  0  0  0  0  0  0  0999 V2000
    9.2260   15.9990   20.8900 C   0  0  0  0  0  0  0  0  0  0  0  0
    9.9020   14.9690   21.7510 C   0  0  0  0  0  0  0  0  0  0  0  0
    9.1830   13.9690   22.3210 N   0  0  0  0  0  0  0  0  0  0  0  0
   10.0520   13.1010   23.1030 C   0  0  0  0  0  0  0  0  0  0  0  0
    9.4620   12.0130   23.7450 C   0  0  0  0  0  0  0  0  0  0  0  0
    9.9550   10.7390   23.4760 C   0  0  0  0  0  0  0  0  0  0  0  0
    9.3880    9.4850   24.1350 C   0  0  0  0  0  0  0  0  0  0  0  0
    8.2490    9.8590   25.0940 C   0  0  0  0  0  0  0  0  0  0  0  0
    7.8160   11.1500   25.2990 C   0  0  0  0  0  0  0  0  0  0  0  0
    8.4060   12.2090   24.6390 C   0  0  0  0  0  0  0  0  0  0  0  0
   11.3950   13.4820   23.1070 C   0  0  0  0  0  0  0  0  0  0  0  0
   12.6220   12.8720   23.8000 C   0  0  0  0  0  0  0  0  0  0  0  0
   12.6370   11.5530   24.1480 N   0  0  0  0  0  0  0  0  0  0  0  0
   13.6030   13.4990   24.1050 O   0  0  0  0  0  0  0  0  0  0  0  0
   11.5760   14.9220   22.1140 S   0  0  0  0  0  0  0  0  0  0  0  0
  1  2  1  0
  2  3  2  0
  3  4  1  0
  4  5  1  0
  5  6  2  0
  6  7  1  0
  7  8  2  0
  8  9  1  0
  9 10  2  0
  4 11  2  0
 11 12  1  0
 12 13  1  0
 12 14  2  0
 11 15  1  0
 15  2  1  0
 10  5  1  0
A    1
 C1 
A    2
 C2 
A    3
 N1 
A    4
 C3 
A    5
 C4 
A    6
 C5 
A    7
 C6 
A    8
 C7 
A    9
 C8 
A   10
 C9 
A   11
 C10
A   12
 C11
A   13
 N2 
A   14
 O1 
A   15
 S1 
M  END
>  <ref_pdb>  (155) 
x0554_0A

>  <ref_mols>  (155) 
x0566_0A

>  <original SMILES>  (155) 
Cc1nc(-c2ccccc2)c(C(N)=O)s1

>  <rationale>  (155) 
info cluster #0 (rank 16); hbond:S125; hydroph_interaction:V84; 

>  <cluster_rank>  (155) 
16

>  <N_interactions>  (155) 
2

>  <N_interactions_lost>  (155) 
0

>  <∆∆G>  (155) 
-6.063133

>  <comRMSD>  (155) 
0.617283

>  <N_rotatable_bonds>  (155) 
3

>  <N_unconstrained_atoms>  (155) 
2

>  <N_constrained_atoms>  (155) 
15

>  <price>  (155) 
0

$$$$
PV_003198879449
     RDKit          3D

 12 13  0  0  0  0  0  0  0  0999 V2000
    6.5560   13.0700   27.6160 C   0  0  0  0  0  0  0  0  0  0  0  0
    7.1780   12.1470   26.5740 C   0  0  0  0  0  0  0  0  0  0  0  0
    8.3730   12.7430   25.8110 C   0  0  0  0  0  0  0  0  0  0  0  0
    8.9850   11.9580   24.8480 C   0  0  0  0  0  0  0  0  0  0  0  0
    8.5150   10.6640   24.6000 C   0  0  0  0  0  0  0  0  0  0  0  0
    7.4350   10.1350   25.3000 C   0  0  0  0  0  0  0  0  0  0  0  0
    6.7340   10.8370   26.2860 C   0  0  0  0  0  0  0  0  0  0  0  0
    5.6470   10.2470   26.9340 C   0  0  0  0  0  0  0  0  0  0  0  0
    9.2600   10.0360   23.5950 N   0  0  0  0  0  0  0  0  0  0  0  0
    9.3230    8.6570   23.5880 C   0  0  0  0  0  0  0  0  0  0  0  0
   10.5060   10.8100   23.5510 C   0  0  0  0  0  0  0  0  0  0  0  0
   10.1390   12.2490   23.9520 C   0  0  0  0  0  0  0  0  0  0  0  0
  1  2  1  0
  2  3  2  0
  3  4  1  0
  4  5  2  0
  5  6  1  0
  6  7  2  0
  7  8  1  0
  5  9  1  0
  9 10  1  0
  9 11  1  0
 11 12  1  0
  7  2  1  0
 12  4  1  0
A    1
 C1 
A    2
 C2 
A    3
 C3 
A    4
 C4 
A    5
 C5 
A    6
 C6 
A    7
 C7 
A    8
 C8 
A    9
 N1 
A   10
 C9 
A   11
 C10
A   12
 C11
M  END
>  <ref_pdb>  (156) 
x0554_0A

>  <ref_mols>  (156) 
x0451_0A,x0556_0A

>  <original SMILES>  (156) 
Cc1cc2c(cc1C)N(C)CC2

>  <rationale>  (156) 
info cluster #6 (rank 16); hydroph_interaction:P107; 

>  <cluster_rank>  (156) 
16

>  <N_interactions>  (156) 
1

>  <N_interactions_lost>  (156) 
0

>  <∆∆G>  (156) 
-7.692289

>  <comRMSD>  (156) 
0.903246

>  <N_rotatable_bonds>  (156) 
3

>  <N_unconstrained_atoms>  (156) 
1

>  <N_constrained_atoms>  (156) 
12

>  <price>  (156) 
0

$$$$
Z295892684
     RDKit          3D

 15 16  0  0  0  0  0  0  0  0999 V2000
   11.0020   14.5620   20.5170 C   0  0  0  0  0  0  0  0  0  0  0  0
   10.2280   15.1670   21.4380 C   0  0  0  0  0  0  0  0  0  0  0  0
    9.3300   16.3240   21.1140 C   0  0  0  0  0  0  0  0  0  0  0  0
    9.4510   14.1430   22.1630 N   0  0  0  0  0  0  0  0  0  0  0  0
   10.1930   13.2600   22.9400 C   0  0  0  0  0  0  0  0  0  0  0  0
   11.3910   13.4490   23.1050 O   0  0  0  0  0  0  0  0  0  0  0  0
    9.6030   12.0120   23.6040 C   0  0  0  0  0  0  0  0  0  0  0  0
   10.0640   10.7380   23.3380 C   0  0  0  0  0  0  0  0  0  0  0  0
    9.5080    9.5160   24.0010 C   0  0  0  0  0  0  0  0  0  0  0  0
    8.3890    9.7050   25.0090 C   0  0  0  0  0  0  0  0  0  0  0  0
    7.9780   11.0160   25.2100 C   0  0  0  0  0  0  0  0  0  0  0  0
    8.5520   12.1110   24.5460 C   0  0  0  0  0  0  0  0  0  0  0  0
    7.8700   13.2080   25.0260 N   0  0  0  0  0  0  0  0  0  0  0  0
    6.9140   12.9270   25.9320 N   0  0  0  0  0  0  0  0  0  0  0  0
    6.9860   11.5730   26.0400 C   0  0  0  0  0  0  0  0  0  0  0  0
  1  2  1  0
  2  3  1  0
  2  4  1  0
  4  5  1  0
  5  6  2  0
  5  7  1  0
  7  8  2  0
  8  9  1  0
  9 10  2  0
 10 11  1  0
 11 12  2  0
 12 13  1  0
 13 14  1  0
 14 15  2  0
 12  7  1  0
 15 11  1  0
A    1
 C1 
A    2
 C2 
A    3
 C3 
A    4
 N1 
A    5
 C4 
A    6
 O1 
A    7
 C5 
A    8
 C6 
A    9
 C7 
A   10
 C8 
A   11
 C9 
A   12
 C10
A   13
 N2 
A   14
 N3 
A   15
 C11
M  END
>  <ref_pdb>  (157) 
x0554_0A

>  <ref_mols>  (157) 
x0566_0A

>  <original SMILES>  (157) 
CC(C)NC(=O)c1cccc2cn[nH]c12

>  <rationale>  (157) 
info cluster #1 (rank 16); hbond:T126; hydroph_interaction:V84; 

>  <cluster_rank>  (157) 
16

>  <N_interactions>  (157) 
2

>  <N_interactions_lost>  (157) 
0

>  <∆∆G>  (157) 
-6.052993

>  <comRMSD>  (157) 
0.588103

>  <N_rotatable_bonds>  (157) 
4

>  <N_unconstrained_atoms>  (157) 
0

>  <N_constrained_atoms>  (157) 
16

>  <price>  (157) 
0

$$$$
Z1094899018
     RDKit          3D

 19 20  0  0  0  0  0  0  0  0999 V2000
   14.5270   11.9130   27.4310 N   0  0  0  0  0  0  0  0  0  0  0  0
   15.1940   12.1730   26.2690 C   0  0  0  0  0  0  0  0  0  0  0  0
   16.1880   12.8800   26.3080 O   0  0  0  0  0  0  0  0  0  0  0  0
   14.6820   11.5750   25.0150 C   0  0  0  0  0  0  0  0  0  0  0  0
   13.2410   11.7920   24.9460 N   0  0  0  0  0  0  0  0  0  0  0  0
   12.7280   12.9430   24.2340 C   0  0  0  0  0  0  0  0  0  0  0  0
   13.4810   13.8380   23.9520 O   0  0  0  0  0  0  0  0  0  0  0  0
   11.3480   13.0020   23.8860 C   0  0  0  0  0  0  0  0  0  0  0  0
   10.5010   11.7990   24.0710 C   0  0  0  0  0  0  0  0  0  0  0  0
   11.1540   10.5610   23.9970 C   0  0  0  0  0  0  0  0  0  0  0  0
   10.4470    9.2870   24.1610 C   0  0  0  0  0  0  0  0  0  0  0  0
    8.9490    9.3620   24.4310 C   0  0  0  0  0  0  0  0  0  0  0  0
    8.3550   10.6310   24.4970 C   0  0  0  0  0  0  0  0  0  0  0  0
    9.1120   11.7970   24.3190 C   0  0  0  0  0  0  0  0  0  0  0  0
   11.4720   13.4930   22.4010 C   0  0  0  0  0  0  0  0  0  0  0  0
   11.6900   14.9980   22.1850 C   0  0  0  0  0  0  0  0  0  0  0  0
   10.7640   15.8280   22.8940 O   0  0  0  0  0  0  0  0  0  0  0  0
    9.9640   15.1110   23.8410 C   0  0  0  0  0  0  0  0  0  0  0  0
   10.8350   14.2040   24.7150 C   0  0  0  0  0  0  0  0  0  0  0  0
  1  2  1  0
  2  3  2  0
  2  4  1  0
  4  5  1  0
  5  6  1  0
  6  7  2  0
  6  8  1  0
  8  9  1  0
  9 10  2  0
 10 11  1  0
 11 12  2  0
 12 13  1  0
 13 14  2  0
  8 15  1  0
 15 16  1  0
 16 17  1  0
 17 18  1  0
 18 19  1  0
 19  8  1  0
 14  9  1  0
A    1
 N1 
A    2
 C1 
A    3
 O1 
A    4
 C2 
A    5
 N2 
A    6
 C3 
A    7
 O2 
A    8
 C4 
A    9
 C5 
A   10
 C6 
A   11
 C7 
A   12
 C8 
A   13
 C9 
A   14
 C10
A   15
 C11
A   16
 C12
A   17
 O3 
A   18
 C13
A   19
 C14
M  END
>  <ref_pdb>  (158) 
x0554_0A

>  <ref_mols>  (158) 
x0554_0A

>  <original SMILES>  (158) 
NC(=O)CNC(=O)C1(c2ccccc2)CCOCC1

>  <rationale>  (158) 
info cluster #7 (rank 16); hbond:G108+S87; hydroph_interaction:A110+D109; 

>  <cluster_rank>  (158) 
16

>  <N_interactions>  (158) 
4

>  <N_interactions_lost>  (158) 
1

>  <∆∆G>  (158) 
-5.948827

>  <comRMSD>  (158) 
0.768514

>  <N_rotatable_bonds>  (158) 
4

>  <N_unconstrained_atoms>  (158) 
2

>  <N_constrained_atoms>  (158) 
18

>  <price>  (158) 
0

$$$$
Z4204994851
     RDKit          3D

 17 18  0  0  0  0  0  0  0  0999 V2000
   10.8290   14.9030   19.6150 C   0  0  0  0  0  0  0  0  0  0  0  0
   10.8760   15.6100   20.9470 C   0  0  1  0  0  0  0  0  0  0  0  0
    9.9860   16.6140   21.0160 N   0  0  0  0  0  0  0  0  0  0  0  0
   10.3920   14.7620   21.9310 C   0  0  0  0  0  0  0  0  0  0  0  0
   11.0810   13.5520   22.2860 N   0  0  0  0  0  0  0  0  0  0  0  0
   11.4270   13.1750   23.8570 S   0  0  0  0  0  6  0  0  0  0  0  0
   12.8120   12.7470   23.9040 O   0  0  0  0  0  0  0  0  0  0  0  0
   10.9320   14.1920   24.7310 O   0  0  0  0  0  0  0  0  0  0  0  0
   10.4230   11.7810   24.1650 C   0  0  0  0  0  0  0  0  0  0  0  0
   10.9540   10.5470   23.8470 C   0  0  0  0  0  0  0  0  0  0  0  0
   10.3040    9.3040   24.0240 C   0  0  0  0  0  0  0  0  0  0  0  0
    8.9310    9.3780   24.6170 C   0  0  0  0  0  0  0  0  0  0  0  0
    8.2950   10.7160   24.9900 C   0  0  0  0  0  0  0  0  0  0  0  0
    9.1210   11.8570   24.7230 C   0  0  0  0  0  0  0  0  0  0  0  0
    8.4320   13.0600   25.1050 O   0  0  0  0  0  0  0  0  0  0  0  0
    7.1990   12.5670   25.5990 C   0  0  0  0  0  0  0  0  0  0  0  0
    7.0820   11.1990   25.5490 C   0  0  0  0  0  0  0  0  0  0  0  0
  2  1  1  6
  2  3  1  0
  2  4  1  0
  4  5  1  0
  5  6  1  0
  6  7  2  0
  6  8  2  0
  6  9  1  0
  9 10  2  0
 10 11  1  0
 11 12  2  0
 12 13  1  0
 13 14  2  0
 14 15  1  0
 15 16  1  0
 16 17  2  0
 14  9  1  0
 17 13  1  0
A    1
 C1 
A    2
 C2 
A    3
 N1 
A    4
 C3 
A    5
 N2 
A    6
 S1 
A    7
 O1 
A    8
 O2 
A    9
 C4 
A   10
 C5 
A   11
 C6 
A   12
 C7 
A   13
 C8 
A   14
 C9 
A   15
 O3 
A   16
 C10
A   17
 C11
M  END
>  <ref_pdb>  (159) 
x0554_0A

>  <ref_mols>  (159) 
x0554_0A

>  <original SMILES>  (159) 
C[C@@H](N)CNS(=O)(=O)c1cccc2ccoc12

>  <rationale>  (159) 
info cluster #3 (rank 16); hbond:S87; hydroph_interaction:A110; 

>  <cluster_rank>  (159) 
16

>  <N_interactions>  (159) 
3

>  <N_interactions_lost>  (159) 
1

>  <∆∆G>  (159) 
-9.302038

>  <comRMSD>  (159) 
0.724214

>  <N_rotatable_bonds>  (159) 
6

>  <N_unconstrained_atoms>  (159) 
0

>  <N_constrained_atoms>  (159) 
18

>  <price>  (159) 
0

$$$$
Z3242712882
     RDKit          3D

 11 11  0  0  0  0  0  0  0  0999 V2000
   12.0340   14.6540   21.8380 C   0  0  0  0  0  0  0  0  0  0  0  0
   10.8260   13.9460   22.1390 O   0  0  0  0  0  0  0  0  0  0  0  0
   10.6370   13.7040   23.4650 C   0  0  0  0  0  0  0  0  0  0  0  0
   10.9250   14.5040   24.3470 O   0  0  0  0  0  0  0  0  0  0  0  0
   10.0520   12.4110   23.7220 C   0  0  0  0  0  0  0  0  0  0  0  0
   10.3060   11.1300   23.2940 C   0  0  0  0  0  0  0  0  0  0  0  0
    9.3380   10.2210   23.9270 N   0  0  0  0  0  0  0  0  0  0  0  0
    9.2870    8.7890   23.7150 C   0  0  0  0  0  0  0  0  0  0  0  0
    8.4730   11.0570   24.7880 C   0  0  0  0  0  0  0  0  0  0  0  0
    7.0220   10.5720   25.9000 Br  0  0  0  0  0  0  0  0  0  0  0  0
    8.8800   12.3640   24.6790 C   0  0  0  0  0  0  0  0  0  0  0  0
  1  2  1  0
  2  3  1  0
  3  4  2  0
  3  5  1  0
  5  6  2  0
  6  7  1  0
  7  8  1  0
  7  9  1  0
  9 10  1  0
  9 11  2  0
 11  5  1  0
A    1
 C1 
A    2
 O1 
A    3
 C2 
A    4
 O2 
A    5
 C3 
A    6
 C4 
A    7
 N1 
A    8
 C5 
A    9
 C6 
A   10
BR1 
A   11
 C7 
M  END
>  <ref_pdb>  (160) 
x0554_0A

>  <ref_mols>  (160) 
x0451_0A,x0556_0A

>  <original SMILES>  (160) 
COC(=O)c1cc(Br)n(C)c1

>  <rationale>  (160) 
info cluster #4 (rank 16); saltbridge:H21; 

>  <cluster_rank>  (160) 
16

>  <N_interactions>  (160) 
1

>  <N_interactions_lost>  (160) 
0

>  <∆∆G>  (160) 
-5.329735

>  <comRMSD>  (160) 
0.711991

>  <N_rotatable_bonds>  (160) 
3

>  <N_unconstrained_atoms>  (160) 
0

>  <N_constrained_atoms>  (160) 
12

>  <price>  (160) 
0

$$$$
Z4217660900
     RDKit          3D

 12 12  0  0  0  0  0  0  0  0999 V2000
   10.8950   14.8500   19.5560 C   0  0  0  0  0  0  0  0  0  0  0  0
   10.4910   15.1330   20.9710 C   0  0  2  0  0  0  0  0  0  0  0  0
   10.0190   16.5400   21.0270 N   0  0  0  0  0  0  0  0  0  0  0  0
   11.4520   14.8910   21.9640 C   0  0  0  0  0  0  0  0  0  0  0  0
   11.3540   13.5580   22.5840 N   0  0  0  0  0  0  0  0  0  0  0  0
   10.4860   13.5390   23.7640 C   0  0  0  0  0  0  0  0  0  0  0  0
    9.8340   12.3040   23.8750 C   0  0  0  0  0  0  0  0  0  0  0  0
   10.3040   11.1350   23.2890 C   0  0  0  0  0  0  0  0  0  0  0  0
    9.4440   10.1420   23.5860 N   0  0  0  0  0  0  0  0  0  0  0  0
    9.6090    8.7800   23.1360 C   0  0  0  0  0  0  0  0  0  0  0  0
    8.4170   10.6180   24.3600 C   0  0  0  0  0  0  0  0  0  0  0  0
    8.6300   11.9850   24.5620 C   0  0  0  0  0  0  0  0  0  0  0  0
  2  1  1  6
  2  3  1  0
  2  4  1  0
  4  5  1  0
  5  6  1  0
  6  7  1  0
  7  8  2  0
  8  9  1  0
  9 10  1  0
  9 11  1  0
 11 12  2  0
 12  7  1  0
A    1
 C1 
A    2
 C2 
A    3
 N1 
A    4
 C3 
A    5
 N2 
A    6
 C4 
A    7
 C5 
A    8
 C6 
A    9
 N3 
A   10
 C7 
A   11
 C8 
A   12
 C9 
M  END
>  <ref_pdb>  (161) 
x0554_0A

>  <ref_mols>  (161) 
x0451_0A

>  <original SMILES>  (161) 
C[C@H](N)CNCc1ccn(C)c1

>  <rationale>  (161) 
info cluster #9 (rank 16); hbond:H21+S87; 

>  <cluster_rank>  (161) 
16

>  <N_interactions>  (161) 
3

>  <N_interactions_lost>  (161) 
1

>  <∆∆G>  (161) 
-7.591528

>  <comRMSD>  (161) 
0.544846

>  <N_rotatable_bonds>  (161) 
7

>  <N_unconstrained_atoms>  (161) 
0

>  <N_constrained_atoms>  (161) 
13

>  <price>  (161) 
0

$$$$
Z5480552523
     RDKit          3D

 14 15  0  0  0  0  0  0  0  0999 V2000
   12.0350   14.7550   21.7990 C   0  0  0  0  0  0  0  0  0  0  0  0
   11.0740   13.7270   22.1230 N   0  0  0  0  0  0  0  0  0  0  0  0
   10.5640   13.6590   23.4040 C   0  0  0  0  0  0  0  0  0  0  0  0
   10.6280   14.5870   24.1980 O   0  0  0  0  0  0  0  0  0  0  0  0
    9.9100   12.3950   23.8300 C   0  0  0  0  0  0  0  0  0  0  0  0
   10.3950   11.1910   23.3450 C   0  0  0  0  0  0  0  0  0  0  0  0
    9.8080    9.9840   23.7260 C   0  0  0  0  0  0  0  0  0  0  0  0
   10.3640    8.7380   23.1760 C   0  0  0  0  0  0  0  0  0  0  0  0
    8.7280    9.9590   24.6040 C   0  0  0  0  0  0  0  0  0  0  0  0
    8.2460   11.1570   25.0820 C   0  0  0  0  0  0  0  0  0  0  0  0
    8.8300   12.3700   24.7000 C   0  0  0  0  0  0  0  0  0  0  0  0
    8.1360   13.5160   25.3470 C   0  0  0  0  0  0  0  0  0  0  0  0
    6.8650   12.8740   25.9050 C   0  0  0  0  0  0  0  0  0  0  0  0
    7.1040   11.3640   26.0220 C   0  0  0  0  0  0  0  0  0  0  0  0
  1  2  1  0
  2  3  1  0
  3  4  2  0
  3  5  1  0
  5  6  2  0
  6  7  1  0
  7  8  1  0
  7  9  2  0
  9 10  1  0
 10 11  2  0
 11 12  1  0
 12 13  1  0
 13 14  1  0
 11  5  1  0
 14 10  1  0
A    1
 C1 
A    2
 N1 
A    3
 C2 
A    4
 O1 
A    5
 C3 
A    6
 C4 
A    7
 C5 
A    8
 C6 
A    9
 C7 
A   10
 C8 
A   11
 C9 
A   12
 C10
A   13
 C11
A   14
 C12
M  END
>  <ref_pdb>  (162) 
x0554_0A

>  <ref_mols>  (162) 
x0451_0A,x0554_0A,x0310_0A

>  <original SMILES>  (162) 
CNC(=O)c1cc(C)cc2c1CCC2

>  <rationale>  (162) 
info cluster #8 (rank 17); hbond:S125; hydroph_interaction:D109+V124; 

>  <cluster_rank>  (162) 
17

>  <N_interactions>  (162) 
3

>  <N_interactions_lost>  (162) 
1

>  <∆∆G>  (162) 
-8.277216

>  <comRMSD>  (162) 
0.669641

>  <N_rotatable_bonds>  (162) 
3

>  <N_unconstrained_atoms>  (162) 
0

>  <N_constrained_atoms>  (162) 
14

>  <price>  (162) 
0

$$$$
Z1509143955
     RDKit          3D

 15 16  0  0  0  0  0  0  0  0999 V2000
   11.9180   14.4310   22.4890 C   0  0  0  0  0  0  0  0  0  0  0  0
   11.1970   13.5840   23.5320 C   0  0  0  0  0  0  0  0  0  0  0  0
   11.2750   13.8370   24.7270 O   0  0  0  0  0  0  0  0  0  0  0  0
   10.5000   12.5630   22.9280 N   0  0  0  0  0  0  0  0  0  0  0  0
    9.8230   11.4500   23.5100 C   0  0  0  0  0  0  0  0  0  0  0  0
   10.2460   10.1460   23.1160 C   0  0  0  0  0  0  0  0  0  0  0  0
    9.6150    8.8870   23.6290 C   0  0  0  0  0  0  0  0  0  0  0  0
    8.4940    9.0970   24.6010 C   0  0  0  0  0  0  0  0  0  0  0  0
    8.1710   10.3890   24.9040 C   0  0  0  0  0  0  0  0  0  0  0  0
    7.1360   10.2430   25.7810 C   0  0  0  0  0  0  0  0  0  0  0  0
    6.4970   11.4280   26.3510 C   0  0  0  0  0  0  0  0  0  0  0  0
    6.9940   12.6820   25.9600 C   0  0  0  0  0  0  0  0  0  0  0  0
    8.0960   12.7290   25.0230 C   0  0  0  0  0  0  0  0  0  0  0  0
    8.4500   13.8740   24.7520 O   0  0  0  0  0  0  0  0  0  0  0  0
    8.7250   11.5940   24.4580 C   0  0  0  0  0  0  0  0  0  0  0  0
  1  2  1  0
  2  3  2  0
  2  4  1  0
  4  5  1  0
  5  6  2  0
  6  7  1  0
  7  8  2  0
  8  9  1  0
  9 10  2  0
 10 11  1  0
 11 12  2  0
 12 13  1  0
 13 14  1  0
 13 15  2  0
 15  5  1  0
 15  9  1  0
A    1
 C1 
A    2
 C2 
A    3
 O1 
A    4
 N1 
A    5
 C3 
A    6
 C4 
A    7
 C5 
A    8
 C6 
A    9
 C7 
A   10
 C8 
A   11
 C9 
A   12
 C10
A   13
 C11
A   14
 O2 
A   15
 C12
M  END
>  <ref_pdb>  (163) 
x0554_0A

>  <ref_mols>  (163) 
x0554_0A,x0451_0A

>  <original SMILES>  (163) 
CC(=O)Nc1cccc2cccc(O)c12

>  <rationale>  (163) 
info cluster #5 (rank 17); hbond:S125; hydroph_interaction:Y89+D109; 

>  <cluster_rank>  (163) 
17

>  <N_interactions>  (163) 
3

>  <N_interactions_lost>  (163) 
1

>  <∆∆G>  (163) 
-7.886356

>  <comRMSD>  (163) 
0.741243

>  <N_rotatable_bonds>  (163) 
3

>  <N_unconstrained_atoms>  (163) 
1

>  <N_constrained_atoms>  (163) 
16

>  <price>  (163) 
0

$$$$
PV_002165423024
     RDKit          3D

 17 18  0  0  0  0  0  0  0  0999 V2000
   11.0110   15.0300   19.3620 C   0  0  0  0  0  0  0  0  0  0  0  0
   10.5900   15.0670   20.8240 C   0  0  0  0  0  0  0  0  0  0  0  0
    9.4990   16.1210   21.1200 C   0  0  0  0  0  0  0  0  0  0  0  0
   11.1810   14.2160   21.6740 C   0  0  0  0  0  0  0  0  0  0  0  0
   10.9030   14.0950   23.0370 C   0  0  0  0  0  0  0  0  0  0  0  0
   10.4510   15.0690   23.6290 O   0  0  0  0  0  0  0  0  0  0  0  0
   11.2180   12.8130   23.5080 N   0  0  0  0  0  0  0  0  0  0  0  0
   12.5430   12.4460   23.7300 C   0  0  0  0  0  0  0  0  0  0  0  0
   10.2360   11.8440   23.9930 C   0  0  0  0  0  0  0  0  0  0  0  0
   10.5160   10.4840   23.7460 C   0  0  0  0  0  0  0  0  0  0  0  0
    9.6410    9.3870   24.1970 C   0  0  0  0  0  0  0  0  0  0  0  0
    8.3740    9.7470   24.9710 C   0  0  0  0  0  0  0  0  0  0  0  0
    8.1110   11.2060   25.1930 C   0  0  0  0  0  0  0  0  0  0  0  0
    9.0270   12.1460   24.7070 C   0  0  0  0  0  0  0  0  0  0  0  0
    8.4770   13.3530   25.0880 N   0  0  0  0  0  0  0  0  0  0  0  0
    7.2970   13.1990   25.7660 C   0  0  0  0  0  0  0  0  0  0  0  0
    7.0440   11.8620   25.8480 C   0  0  0  0  0  0  0  0  0  0  0  0
  1  2  1  0
  2  3  1  0
  2  4  2  3
  4  5  1  0
  5  6  2  0
  5  7  1  0
  7  8  1  0
  7  9  1  0
  9 10  2  0
 10 11  1  0
 11 12  2  0
 12 13  1  0
 13 14  2  0
 14 15  1  0
 15 16  1  0
 16 17  2  0
 14  9  1  0
 17 13  1  0
A    1
 C1 
A    2
 C2 
A    3
 C3 
A    4
 C4 
A    5
 C5 
A    6
 O1 
A    7
 N1 
A    8
 C6 
A    9
 C7 
A   10
 C8 
A   11
 C9 
A   12
 C10
A   13
 C11
A   14
 C12
A   15
 N2 
A   16
 C13
A   17
 C14
M  END
>  <ref_pdb>  (164) 
x0554_0A

>  <ref_mols>  (164) 
x0554_0A

>  <original SMILES>  (164) 
CC(C)=CC(=O)N(C)c1cccc2cc[nH]c12

>  <rationale>  (164) 
info cluster #2 (rank 17); hbond:S87; hydroph_interaction:Y90+V84; 

>  <cluster_rank>  (164) 
17

>  <N_interactions>  (164) 
3

>  <N_interactions_lost>  (164) 
1

>  <∆∆G>  (164) 
-7.934229

>  <comRMSD>  (164) 
0.661424

>  <N_rotatable_bonds>  (164) 
5

>  <N_unconstrained_atoms>  (164) 
0

>  <N_constrained_atoms>  (164) 
19

>  <price>  (164) 
0

$$$$
Z3352546733
     RDKit          3D

 19 21  0  0  0  0  0  0  0  0999 V2000
    9.9350   14.9070   21.2030 C   0  0  0  0  0  0  0  0  0  0  0  0
    9.2080   14.0750   22.0970 O   0  0  0  0  0  0  0  0  0  0  0  0
    9.9430   13.2180   22.8380 C   0  0  0  0  0  0  0  0  0  0  0  0
   11.1540   13.3650   22.8550 O   0  0  0  0  0  0  0  0  0  0  0  0
    9.3610   12.0340   23.6520 C   0  0  0  0  0  0  0  0  0  0  0  0
    9.9660   10.7600   23.5220 C   0  0  0  0  0  0  0  0  0  0  0  0
    9.1510    9.6010   24.4980 S   0  0  0  0  0  0  0  0  0  0  0  0
    8.0160   10.8060   25.0730 C   0  0  0  0  0  0  0  0  0  0  0  0
    8.2740   12.0390   24.5170 C   0  0  0  0  0  0  0  0  0  0  0  0
    7.3910   12.9810   24.9530 N   0  0  0  0  0  0  0  0  0  0  0  0
    6.4910   12.4240   25.8190 C   0  0  0  0  0  0  0  0  0  0  0  0
    5.3860   13.3110   26.4300 C   0  0  0  0  0  0  0  0  0  0  0  0
    5.6040   14.1230   27.3170 O   0  0  0  0  0  0  0  0  0  0  0  0
    4.1100   13.2070   25.9130 N   0  0  0  0  0  0  0  0  0  0  0  0
    3.6030   14.2470   25.0320 C   0  0  0  0  0  0  0  0  0  0  0  0
    2.2560   14.3360   25.4010 C   0  0  0  0  0  0  0  0  0  0  0  0
    1.9030   13.5900   26.5220 C   0  0  0  0  0  0  0  0  0  0  0  0
    3.0400   12.7310   26.7380 O   0  0  0  0  0  0  0  0  0  0  0  0
    6.8800   10.9350   25.9440 C   0  0  0  0  0  0  0  0  0  0  0  0
  1  2  1  0
  2  3  1  0
  3  4  2  0
  3  5  1  0
  5  6  2  0
  6  7  1  0
  7  8  1  0
  8  9  2  0
  9 10  1  0
 10 11  1  0
 11 12  1  0
 12 13  2  0
 12 14  1  0
 14 15  1  0
 15 16  1  0
 16 17  1  0
 17 18  1  0
 11 19  2  0
  9  5  1  0
 19  8  1  0
 18 14  1  0
A    1
 C1 
A    2
 O1 
A    3
 C2 
A    4
 O2 
A    5
 C3 
A    6
 C4 
A    7
 S1 
A    8
 C5 
A    9
 C6 
A   10
 N1 
A   11
 C7 
A   12
 C8 
A   13
 O3 
A   14
 N2 
A   15
 C9 
A   16
 C10
A   17
 C11
A   18
 O4 
A   19
 C12
M  END
>  <ref_pdb>  (165) 
x0554_0A

>  <ref_mols>  (165) 
x0566_0A,x0416_0A

>  <original SMILES>  (165) 
COC(=O)c1csc2cc(C(=O)N3CCCO3)[nH]c12

>  <rationale>  (165) 
info cluster #6 (rank 17); hbond:N129; 

>  <cluster_rank>  (165) 
17

>  <N_interactions>  (165) 
1

>  <N_interactions_lost>  (165) 
0

>  <∆∆G>  (165) 
-5.48967

>  <comRMSD>  (165) 
0.983535

>  <N_rotatable_bonds>  (165) 
3

>  <N_unconstrained_atoms>  (165) 
3

>  <N_constrained_atoms>  (165) 
17

>  <price>  (165) 
0

$$$$
Z2228324452
     RDKit          3D

 14 15  0  0  0  0  0  0  0  0999 V2000
   11.9650   14.6350   21.9760 C   0  0  0  0  0  0  0  0  0  0  0  0
   10.8660   13.6720   22.1170 N   0  0  0  0  0  0  0  0  0  0  0  0
   10.4850   13.5570   23.5330 C   0  0  0  0  0  0  0  0  0  0  0  0
   10.8890   14.3460   24.3720 O   0  0  0  0  0  0  0  0  0  0  0  0
    9.6120   12.5330   23.9600 C   0  0  0  0  0  0  0  0  0  0  0  0
    8.5520   12.8590   24.8180 C   0  0  0  0  0  0  0  0  0  0  0  0
    7.5680   11.8370   25.3410 C   0  0  0  0  0  0  0  0  0  0  0  0
    7.7240   10.5250   24.9460 C   0  0  0  0  0  0  0  0  0  0  0  0
    8.7890   10.2370   24.0840 C   0  0  0  0  0  0  0  0  0  0  0  0
    9.7080   11.2140   23.6140 C   0  0  0  0  0  0  0  0  0  0  0  0
   10.5640   10.5170   22.8490 N   0  0  0  0  0  0  0  0  0  0  0  0
   10.3740    9.1400   23.1290 C   0  0  0  0  0  0  0  0  0  0  0  0
   11.1400    8.0930   23.0620 O   0  0  0  0  0  0  0  0  0  0  0  0
    9.1260    9.0080   23.5570 N   0  0  0  0  0  0  0  0  0  0  0  0
  1  2  1  0
  2  3  1  0
  3  4  2  0
  3  5  1  0
  5  6  2  0
  6  7  1  0
  7  8  2  0
  8  9  1  0
  9 10  2  0
 10 11  1  0
 11 12  1  0
 12 13  2  0
 12 14  1  0
 10  5  1  0
 14  9  1  0
A    1
 C1 
A    2
 N1 
A    3
 C2 
A    4
 O1 
A    5
 C3 
A    6
 C4 
A    7
 C5 
A    8
 C6 
A    9
 C7 
A   10
 C8 
A   11
 N2 
A   12
 C9 
A   13
 O2 
A   14
 N3 
M  END
>  <ref_pdb>  (166) 
x0554_0A

>  <ref_mols>  (166) 
x0554_0A,x0451_0A

>  <original SMILES>  (166) 
CNC(=O)c1cccc2[nH]c(=O)[nH]c12

>  <rationale>  (166) 
info cluster #0 (rank 17); hbond:S105+S125; 

>  <cluster_rank>  (166) 
17

>  <N_interactions>  (166) 
3

>  <N_interactions_lost>  (166) 
1

>  <∆∆G>  (166) 
-5.137345

>  <comRMSD>  (166) 
0.924616

>  <N_rotatable_bonds>  (166) 
2

>  <N_unconstrained_atoms>  (166) 
3

>  <N_constrained_atoms>  (166) 
12

>  <price>  (166) 
0

$$$$
Z1536676137
     RDKit          3D

 21 22  0  0  0  0  0  0  0  0999 V2000
   10.1600    8.9520   23.5290 C   0  0  0  0  0  0  0  0  0  0  0  0
    9.3100   10.0770   24.0530 C   0  0  0  0  0  0  0  0  0  0  0  0
    8.3160    9.9090   24.9220 C   0  0  0  0  0  0  0  0  0  0  0  0
    7.4660   11.0040   25.4300 C   0  0  0  0  0  0  0  0  0  0  0  0
    7.7230   12.2930   24.9820 C   0  0  0  0  0  0  0  0  0  0  0  0
    6.9770   13.4320   25.3980 N   0  0  0  0  0  0  0  0  0  0  0  0
    5.7490   13.5290   26.0590 C   0  0  0  0  0  0  0  0  0  0  0  0
    5.0670   14.5560   26.1150 O   0  0  0  0  0  0  0  0  0  0  0  0
    5.3260   12.3330   26.7030 C   0  0  1  0  0  0  0  0  0  0  0  0
    5.9610   11.7450   27.8930 C   0  0  0  0  0  0  0  0  0  0  0  0
    4.8720   12.4480   28.6830 C   0  0  0  0  0  0  0  0  0  0  0  0
    4.0860   12.4950   27.4760 O   0  0  0  0  0  0  0  0  0  0  0  0
    8.8030   12.4630   24.0580 C   0  0  0  0  0  0  0  0  0  0  0  0
    9.0920   13.7180   23.6040 O   0  0  0  0  0  0  0  0  0  0  0  0
   10.3700   13.8160   22.9700 C   0  0  0  0  0  0  0  0  0  0  0  0
   10.5520   15.1050   22.3960 C   0  0  0  0  0  0  0  0  0  0  0  0
   10.9070   16.0260   23.1120 O   0  0  0  0  0  0  0  0  0  0  0  0
   10.3070   15.2790   21.0260 N   0  0  0  0  0  0  0  0  0  0  0  0
   11.1680   14.7090   19.9910 C   0  0  0  0  0  0  0  0  0  0  0  0
    9.6520   16.5250   20.6500 C   0  0  0  0  0  0  0  0  0  0  0  0
    9.5610   11.3670   23.6190 C   0  0  0  0  0  0  0  0  0  0  0  0
  1  2  1  0
  2  3  2  0
  3  4  1  0
  4  5  2  0
  5  6  1  0
  6  7  1  0
  7  8  2  0
  9  7  1  1
  9 10  1  0
 10 11  1  0
 11 12  1  0
  5 13  1  0
 13 14  1  0
 14 15  1  0
 15 16  1  0
 16 17  2  0
 16 18  1  0
 18 19  1  0
 18 20  1  0
 13 21  2  0
 21  2  1  0
 12  9  1  0
A    1
 C1 
A    2
 C2 
A    3
 C3 
A    4
 C4 
A    5
 C5 
A    6
 N1 
A    7
 C6 
A    8
 O1 
A    9
 C7 
A   10
 C8 
A   11
 C9 
A   12
 O2 
A   13
 C10
A   14
 O3 
A   15
 C11
A   16
 C12
A   17
 O4 
A   18
 N2 
A   19
 C13
A   20
 C14
A   21
 C15
M  END
>  <ref_pdb>  (167) 
x0554_0A

>  <ref_mols>  (167) 
x0416_0A

>  <original SMILES>  (167) 
Cc1ccc(NC(=O)C2CCO2)c(OCC(=O)N(C)C)c1

>  <rationale>  (167) 
info cluster #7 (rank 17); hbond:S87; hydroph_interaction:P107+D109+V124; 

>  <cluster_rank>  (167) 
17

>  <N_interactions>  (167) 
4

>  <N_interactions_lost>  (167) 
1

>  <∆∆G>  (167) 
-10.950646

>  <comRMSD>  (167) 
0.501295

>  <N_rotatable_bonds>  (167) 
8

>  <N_unconstrained_atoms>  (167) 
2

>  <N_constrained_atoms>  (167) 
20

>  <price>  (167) 
0

$$$$
Z5319494728
     RDKit          3D

 14 15  0  0  0  0  0  0  0  0999 V2000
   10.6140   14.8950   20.3630 C   0  0  0  0  0  0  0  0  0  0  0  0
    9.7320   15.2650   21.5580 C   0  0  0  0  0  0  0  0  0  0  0  0
    9.1900   14.1070   22.2520 N   0  0  0  0  0  0  0  0  0  0  0  0
   10.0410   13.2790   22.9680 C   0  0  0  0  0  0  0  0  0  0  0  0
   11.2400   13.5190   23.0560 O   0  0  0  0  0  0  0  0  0  0  0  0
    9.4920   12.0090   23.6530 C   0  0  0  0  0  0  0  0  0  0  0  0
   10.0610   10.7790   23.3220 C   0  0  0  0  0  0  0  0  0  0  0  0
    9.6210    9.5960   23.9020 C   0  0  0  0  0  0  0  0  0  0  0  0
    8.6080    9.6110   24.8240 C   0  0  0  0  0  0  0  0  0  0  0  0
    8.0220   10.8210   25.1670 C   0  0  0  0  0  0  0  0  0  0  0  0
    8.4360   12.0240   24.6070 C   0  0  0  0  0  0  0  0  0  0  0  0
    7.7290   13.1350   25.0830 N   0  0  0  0  0  0  0  0  0  0  0  0
    6.8260   12.7550   25.9580 C   0  0  0  0  0  0  0  0  0  0  0  0
    6.7420   11.0840   26.2870 S   0  0  0  0  0  0  0  0  0  0  0  0
  1  2  1  0
  2  3  1  0
  3  4  1  0
  4  5  2  0
  4  6  1  0
  6  7  2  0
  7  8  1  0
  8  9  2  0
  9 10  1  0
 10 11  2  0
 11 12  1  0
 12 13  2  0
 13 14  1  0
 11  6  1  0
 14 10  1  0
A    1
 C1 
A    2
 C2 
A    3
 N1 
A    4
 C3 
A    5
 O1 
A    6
 C4 
A    7
 C5 
A    8
 C6 
A    9
 C7 
A   10
 C8 
A   11
 C9 
A   12
 N2 
A   13
 C10
A   14
 S1 
M  END
>  <ref_pdb>  (168) 
x0554_0A

>  <ref_mols>  (168) 
x0566_0A

>  <original SMILES>  (168) 
CCNC(=O)c1cccc2scnc12

>  <rationale>  (168) 
info cluster #1 (rank 17); hbond:T126; 

>  <cluster_rank>  (168) 
17

>  <N_interactions>  (168) 
1

>  <N_interactions_lost>  (168) 
0

>  <∆∆G>  (168) 
-6.325779

>  <comRMSD>  (168) 
0.625171

>  <N_rotatable_bonds>  (168) 
3

>  <N_unconstrained_atoms>  (168) 
0

>  <N_constrained_atoms>  (168) 
15

>  <price>  (168) 
0

$$$$
Z2234362639
     RDKit          3D

 18 19  0  0  0  0  0  0  0  0999 V2000
    8.9710   15.2030   22.2230 C   0  0  0  0  0  0  0  0  0  0  0  0
    9.9350   15.4160   21.0690 C   0  0  1  0  0  0  0  0  0  0  0  0
   10.1360   16.7610   20.8160 N   0  0  0  0  0  0  0  0  0  0  0  0
   11.2410   14.6570   21.2500 C   0  0  1  0  0  0  0  0  0  0  0  0
   12.2700   15.4430   21.7280 C   0  0  0  0  0  0  0  0  0  0  0  0
   11.0950   13.4670   22.0800 N   0  0  0  0  0  0  0  0  0  0  0  0
   10.5940   13.4270   23.3690 C   0  0  0  0  0  0  0  0  0  0  0  0
   10.7250   14.3480   24.1760 O   0  0  0  0  0  0  0  0  0  0  0  0
    9.8690   12.1200   23.7060 C   0  0  0  0  0  0  0  0  0  0  0  0
   10.2430   10.9260   23.1720 N   0  0  0  0  0  0  0  0  0  0  0  0
    9.3780   10.0430   23.7080 N   0  0  0  0  0  0  0  0  0  0  0  0
    9.4490    8.6430   23.3770 C   0  0  0  0  0  0  0  0  0  0  0  0
    8.4770   10.6060   24.5610 C   0  0  0  0  0  0  0  0  0  0  0  0
    7.3510   10.0700   25.3910 C   0  0  0  0  0  0  0  0  0  0  0  0
    6.4990   10.9690   26.2590 C   0  0  0  0  0  0  0  0  0  0  0  0
    6.8280   12.3200   26.2390 C   0  0  0  0  0  0  0  0  0  0  0  0
    7.8810   12.8690   25.4760 C   0  0  0  0  0  0  0  0  0  0  0  0
    8.7590   11.9560   24.5830 C   0  0  0  0  0  0  0  0  0  0  0  0
  2  1  1  1
  2  3  1  0
  2  4  1  0
  4  5  1  1
  4  6  1  0
  6  7  1  0
  7  8  2  0
  7  9  1  0
  9 10  2  0
 10 11  1  0
 11 12  1  0
 11 13  1  0
 13 14  2  0
 14 15  1  0
 15 16  2  0
 16 17  1  0
 17 18  2  0
 18  9  1  0
 18 13  1  0
A    1
 C1 
A    2
 C2 
A    3
 N1 
A    4
 C3 
A    5
 C4 
A    6
 N2 
A    7
 C5 
A    8
 O1 
A    9
 C6 
A   10
 N3 
A   11
 N4 
A   12
 C7 
A   13
 C8 
A   14
 C9 
A   15
 C10
A   16
 C11
A   17
 C12
A   18
 C13
M  END
>  <ref_pdb>  (169) 
x0554_0A

>  <ref_mols>  (169) 
x0451_0A

>  <original SMILES>  (169) 
CC(N)C(C)NC(=O)c1nn(C)c2ccccc12

>  <rationale>  (169) 
info cluster #3 (rank 17); hbond:S87+S125; hydroph_interaction:Y89; 

>  <cluster_rank>  (169) 
17

>  <N_interactions>  (169) 
4

>  <N_interactions_lost>  (169) 
2

>  <∆∆G>  (169) 
-10.752967

>  <comRMSD>  (169) 
0.728793

>  <N_rotatable_bonds>  (169) 
7

>  <N_unconstrained_atoms>  (169) 
2

>  <N_constrained_atoms>  (169) 
18

>  <price>  (169) 
0

$$$$
Z2841047207
     RDKit          3D

 14 14  0  0  0  0  0  0  0  0999 V2000
   12.1260   14.9000   21.7040 C   0  0  0  0  0  0  0  0  0  0  0  0
   11.0880   13.9730   22.0330 O   0  0  0  0  0  0  0  0  0  0  0  0
   11.0150   13.6610   23.3570 C   0  0  0  0  0  0  0  0  0  0  0  0
   11.3950   14.4030   24.2520 O   0  0  0  0  0  0  0  0  0  0  0  0
   10.3620   12.2980   23.6030 C   0  0  0  0  0  0  0  0  0  0  0  0
    9.1400   12.3620   24.4320 C   0  0  0  0  0  0  0  0  0  0  0  0
    8.5640   11.0360   24.6140 C   0  0  0  0  0  0  0  0  0  0  0  0
    7.4140   10.8980   25.3580 N   0  0  0  0  0  0  0  0  0  0  0  0
    6.8610   12.0550   25.8790 C   0  0  0  0  0  0  0  0  0  0  0  0
    7.3390   13.1700   25.2500 N   0  0  0  0  0  0  0  0  0  0  0  0
    6.0540   12.2150   26.7840 O   0  0  0  0  0  0  0  0  0  0  0  0
    9.3410   10.0600   23.9420 C   0  0  0  0  0  0  0  0  0  0  0  0
    9.1920    8.6070   23.7990 C   0  0  0  0  0  0  0  0  0  0  0  0
   10.7180   10.7100   23.1390 S   0  0  0  0  0  0  0  0  0  0  0  0
  1  2  1  0
  2  3  1  0
  3  4  2  0
  3  5  1  0
  5  6  2  0
  6  7  1  0
  7  8  1  0
  8  9  1  0
  9 10  1  0
  9 11  2  0
  7 12  2  0
 12 13  1  0
 12 14  1  0
 14  5  1  0
A    1
 C1 
A    2
 O1 
A    3
 C2 
A    4
 O2 
A    5
 C3 
A    6
 C4 
A    7
 C5 
A    8
 N1 
A    9
 C6 
A   10
 N2 
A   11
 O3 
A   12
 C7 
A   13
 C8 
A   14
 S1 
M  END
>  <ref_pdb>  (170) 
x0554_0A

>  <ref_mols>  (170) 
x0451_0A,x0416_0A,x0554_0A

>  <original SMILES>  (170) 
COC(=O)c1cc(NC(N)=O)c(C)s1

>  <rationale>  (170) 
info cluster #4 (rank 17); hbond:S105; hydroph_interaction:D109; saltbridge:H21; 

>  <cluster_rank>  (170) 
17

>  <N_interactions>  (170) 
3

>  <N_interactions_lost>  (170) 
0

>  <∆∆G>  (170) 
-4.993541

>  <comRMSD>  (170) 
0.975368

>  <N_rotatable_bonds>  (170) 
4

>  <N_unconstrained_atoms>  (170) 
0

>  <N_constrained_atoms>  (170) 
17

>  <price>  (170) 
0

$$$$
Z2156733725
     RDKit          3D

 13 13  0  0  0  0  0  0  0  0999 V2000
   10.5390   14.9440   19.2800 C   0  0  0  0  0  0  0  0  0  0  0  0
   10.3540   15.1070   20.7860 C   0  0  2  0  0  0  0  0  0  0  0  0
   10.1150   16.5550   21.0290 N   0  0  0  0  0  0  0  0  0  0  0  0
   11.6260   14.5000   21.4720 C   0  0  1  0  0  0  0  0  0  0  0  0
   12.5570   15.5470   22.0030 C   0  0  0  0  0  0  0  0  0  0  0  0
   11.4050   13.3980   22.4400 N   0  0  0  0  0  0  0  0  0  0  0  0
   10.3330   13.5670   23.4320 C   0  0  0  0  0  0  0  0  0  0  0  0
    9.7030   12.2290   23.7230 C   0  0  0  0  0  0  0  0  0  0  0  0
   10.2140   11.1010   23.1990 N   0  0  0  0  0  0  0  0  0  0  0  0
    9.3990   10.1330   23.6530 N   0  0  0  0  0  0  0  0  0  0  0  0
    9.6550    8.7730   23.2590 C   0  0  0  0  0  0  0  0  0  0  0  0
    8.3980   10.5930   24.4540 C   0  0  0  0  0  0  0  0  0  0  0  0
    8.5650   11.9540   24.5210 C   0  0  0  0  0  0  0  0  0  0  0  0
  2  1  1  6
  2  3  1  0
  2  4  1  0
  4  5  1  1
  4  6  1  0
  6  7  1  0
  7  8  1  0
  8  9  2  0
  9 10  1  0
 10 11  1  0
 10 12  1  0
 12 13  2  0
 13  8  1  0
A    1
 C1 
A    2
 C2 
A    3
 N1 
A    4
 C3 
A    5
 C4 
A    6
 N2 
A    7
 C5 
A    8
 C6 
A    9
 N3 
A   10
 N4 
A   11
 C7 
A   12
 C8 
A   13
 C9 
M  END
>  <ref_pdb>  (171) 
x0554_0A

>  <ref_mols>  (171) 
x0451_0A

>  <original SMILES>  (171) 
CC(N)C(C)NCc1ccn(C)n1

>  <rationale>  (171) 
info cluster #9 (rank 17); hbond:H21+S87; hydroph_interaction:Y89; 

>  <cluster_rank>  (171) 
17

>  <N_interactions>  (171) 
3

>  <N_interactions_lost>  (171) 
1

>  <∆∆G>  (171) 
-8.27403

>  <comRMSD>  (171) 
0.82973

>  <N_rotatable_bonds>  (171) 
8

>  <N_unconstrained_atoms>  (171) 
1

>  <N_constrained_atoms>  (171) 
14

>  <price>  (171) 
0

$$$$
Z2454495857
     RDKit          3D

 18 19  0  0  0  0  0  0  0  0999 V2000
   10.2630    8.8620   23.5550 C   0  0  0  0  0  0  0  0  0  0  0  0
    9.5070   10.0490   24.0430 C   0  0  0  0  0  0  0  0  0  0  0  0
    8.4090    9.9170   24.8710 C   0  0  0  0  0  0  0  0  0  0  0  0
    7.6810   11.0180   25.3190 C   0  0  0  0  0  0  0  0  0  0  0  0
    8.0430   12.3210   24.9600 C   0  0  0  0  0  0  0  0  0  0  0  0
    7.2750   13.4410   25.4400 N   0  0  0  0  0  0  0  0  0  0  0  0
    5.9740   13.5450   25.9900 C   0  0  0  0  0  0  0  0  0  0  0  0
    5.3050   14.5760   26.0370 O   0  0  0  0  0  0  0  0  0  0  0  0
    5.3600   12.2570   26.5930 C   0  0  1  0  0  0  0  0  0  0  0  0
    6.1270   11.7980   27.8010 C   0  0  0  0  0  0  0  0  0  0  0  0
    5.4640   12.5370   28.9350 C   0  0  0  0  0  0  0  0  0  0  0  0
    4.0150   12.5110   28.5100 C   0  0  0  0  0  0  0  0  0  0  0  0
    4.0050   12.4270   27.0730 O   0  0  0  0  0  0  0  0  0  0  0  0
    9.2180   12.4530   24.1040 C   0  0  0  0  0  0  0  0  0  0  0  0
    9.8340   13.7270   23.6020 C   0  0  0  0  0  0  0  0  0  0  0  0
   10.3990   13.7570   22.3350 N   0  0  0  0  0  0  0  0  0  0  0  0
    9.8890   14.7310   24.3000 O   0  0  0  0  0  0  0  0  0  0  0  0
    9.9040   11.3130   23.6720 C   0  0  0  0  0  0  0  0  0  0  0  0
  1  2  1  0
  2  3  2  0
  3  4  1  0
  4  5  2  0
  5  6  1  0
  6  7  1  0
  7  8  2  0
  9  7  1  1
  9 10  1  0
 10 11  1  0
 11 12  1  0
 12 13  1  0
  5 14  1  0
 14 15  1  0
 15 16  1  0
 15 17  2  0
 14 18  2  0
 18  2  1  0
 13  9  1  0
A    1
 C1 
A    2
 C2 
A    3
 C3 
A    4
 C4 
A    5
 C5 
A    6
 N1 
A    7
 C6 
A    8
 O1 
A    9
 C7 
A   10
 C8 
A   11
 C9 
A   12
 C10
A   13
 O2 
A   14
 C11
A   15
 C12
A   16
 N2 
A   17
 O3 
A   18
 C13
M  END
>  <ref_pdb>  (172) 
x0554_0A

>  <ref_mols>  (172) 
x0416_0A,x0451_0A

>  <original SMILES>  (172) 
Cc1ccc(NC(=O)C2CCCO2)c(C(N)=O)c1

>  <rationale>  (172) 
info cluster #8 (rank 18); hbond:S125; hydroph_interaction:P107+D109+V124; 

>  <cluster_rank>  (172) 
18

>  <N_interactions>  (172) 
4

>  <N_interactions_lost>  (172) 
1

>  <∆∆G>  (172) 
-7.250696

>  <comRMSD>  (172) 
0.644071

>  <N_rotatable_bonds>  (172) 
4

>  <N_unconstrained_atoms>  (172) 
0

>  <N_constrained_atoms>  (172) 
20

>  <price>  (172) 
0

$$$$
Z1416026731
     RDKit          3D

 13 13  0  0  0  0  0  0  0  0999 V2000
   11.8400   14.1260   22.3710 C   0  0  0  0  0  0  0  0  0  0  0  0
   11.0940   13.4180   23.4820 C   0  0  0  0  0  0  0  0  0  0  0  0
   11.0300   13.9200   24.5960 O   0  0  0  0  0  0  0  0  0  0  0  0
   10.5310   12.2090   23.1050 N   0  0  0  0  0  0  0  0  0  0  0  0
    9.5270   11.4610   23.8060 C   0  0  0  0  0  0  0  0  0  0  0  0
    9.3910   10.0720   23.7510 C   0  0  0  0  0  0  0  0  0  0  0  0
   10.1950    9.2120   23.0130 C   0  0  0  0  0  0  0  0  0  0  0  0
    8.1110    9.4740   24.6950 S   0  0  0  0  0  0  0  0  0  0  0  0
    7.6530   11.0230   25.2270 C   0  0  0  0  0  0  0  0  0  0  0  0
    6.5040   11.1460   26.1340 C   0  0  0  0  0  0  0  0  0  0  0  0
    6.0180   10.0010   26.6970 N   0  0  0  0  0  0  0  0  0  0  0  0
    5.9310   12.1930   26.4380 O   0  0  0  0  0  0  0  0  0  0  0  0
    8.4970   11.9870   24.6720 C   0  0  0  0  0  0  0  0  0  0  0  0
  1  2  1  0
  2  3  2  0
  2  4  1  0
  4  5  1  0
  5  6  2  0
  6  7  1  0
  6  8  1  0
  8  9  1  0
  9 10  1  0
 10 11  1  0
 10 12  2  0
  9 13  2  0
 13  5  1  0
A    1
 C1 
A    2
 C2 
A    3
 O1 
A    4
 N1 
A    5
 C3 
A    6
 C4 
A    7
 C5 
A    8
 S1 
A    9
 C6 
A   10
 C7 
A   11
 N2 
A   12
 O2 
A   13
 C8 
M  END
>  <ref_pdb>  (173) 
x0554_0A

>  <ref_mols>  (173) 
x0556_0A,x0554_0A

>  <original SMILES>  (173) 
CC(=O)Nc1cc(C(N)=O)sc1C

>  <rationale>  (173) 
info cluster #5 (rank 18); hbond:S105+S125; hydroph_interaction:Y89+V124; 

>  <cluster_rank>  (173) 
18

>  <N_interactions>  (173) 
4

>  <N_interactions_lost>  (173) 
2

>  <∆∆G>  (173) 
-8.902944

>  <comRMSD>  (173) 
0.582822

>  <N_rotatable_bonds>  (173) 
4

>  <N_unconstrained_atoms>  (173) 
0

>  <N_constrained_atoms>  (173) 
14

>  <price>  (173) 
0

$$$$
Z3563023562
     RDKit          3D

 15 15  0  0  0  0  0  0  0  0999 V2000
    9.0060    8.6450   23.8910 C   0  0  0  0  0  0  0  0  0  0  0  0
    8.7540   10.0880   24.2080 C   0  0  0  0  0  0  0  0  0  0  0  0
    9.5760   11.0270   23.6110 C   0  0  0  0  0  0  0  0  0  0  0  0
    9.4160   12.3870   23.8410 C   0  0  0  0  0  0  0  0  0  0  0  0
   10.2530   13.2900   23.2260 C   0  0  0  0  0  0  0  0  0  0  0  0
    9.4030   14.1220   22.4460 O   0  0  0  0  0  0  0  0  0  0  0  0
   10.0700   15.2060   22.0350 C   0  0  0  0  0  0  0  0  0  0  0  0
   10.7520   15.8730   22.8090 O   0  0  0  0  0  0  0  0  0  0  0  0
    9.9250   15.5480   20.5530 C   0  0  0  0  0  0  0  0  0  0  0  0
   11.0620   14.9220   19.7540 C   0  0  0  0  0  0  0  0  0  0  0  0
    9.8490   17.0570   20.3880 C   0  0  0  0  0  0  0  0  0  0  0  0
    8.4120   12.7990   24.6860 C   0  0  0  0  0  0  0  0  0  0  0  0
    7.5350   11.8760   25.3360 N   0  0  0  0  0  0  0  0  0  0  0  0
    7.7520   10.5960   25.0640 C   0  0  0  0  0  0  0  0  0  0  0  0
    6.5870    9.7540   25.9560 Cl  0  0  0  0  0  0  0  0  0  0  0  0
  1  2  1  0
  2  3  2  0
  3  4  1  0
  4  5  1  0
  5  6  1  0
  6  7  1  0
  7  8  2  0
  7  9  1  0
  9 10  1  0
  9 11  1  0
  4 12  2  0
 12 13  1  0
 13 14  2  0
 14 15  1  0
 14  2  1  0
A    1
 C1 
A    2
 C2 
A    3
 C3 
A    4
 C4 
A    5
 C5 
A    6
 O1 
A    7
 C6 
A    8
 O2 
A    9
 C7 
A   10
 C8 
A   11
 C9 
A   12
 C10
A   13
 N1 
A   14
 C11
A   15
CL1 
M  END
>  <ref_pdb>  (174) 
x0554_0A

>  <ref_mols>  (174) 
x0416_0A

>  <original SMILES>  (174) 
Cc1cc(COC(=O)C(C)C)cnc1Cl

>  <rationale>  (174) 
info cluster #2 (rank 18); hbond:S87; hydroph_interaction:Y90+D109+V84; 

>  <cluster_rank>  (174) 
18

>  <N_interactions>  (174) 
4

>  <N_interactions_lost>  (174) 
1

>  <∆∆G>  (174) 
-8.592722

>  <comRMSD>  (174) 
0.796174

>  <N_rotatable_bonds>  (174) 
6

>  <N_unconstrained_atoms>  (174) 
3

>  <N_constrained_atoms>  (174) 
12

>  <price>  (174) 
0

$$$$
PV_003156159307
     RDKit          3D

 12 13  0  0  0  0  0  0  0  0999 V2000
   12.1130   14.8560   21.9190 C   0  0  0  0  0  0  0  0  0  0  0  0
   11.5750   13.5600   22.4640 C   0  0  0  0  0  0  0  0  0  0  0  0
   10.2620   13.3340   23.1470 C   0  0  0  0  0  0  0  0  0  0  0  0
    9.7970   12.0830   23.6350 C   0  0  0  0  0  0  0  0  0  0  0  0
   10.3210   10.8300   23.2930 C   0  0  0  0  0  0  0  0  0  0  0  0
    9.7500    9.5830   23.8630 C   0  0  0  0  0  0  0  0  0  0  0  0
    8.6860    9.6630   24.7470 C   0  0  0  0  0  0  0  0  0  0  0  0
    8.1570   10.9120   25.0860 C   0  0  0  0  0  0  0  0  0  0  0  0
    8.7160   12.0990   24.5300 C   0  0  0  0  0  0  0  0  0  0  0  0
    8.0350   13.2050   25.0080 N   0  0  0  0  0  0  0  0  0  0  0  0
    6.9790   12.7950   25.9140 C   0  0  0  0  0  0  0  0  0  0  0  0
    7.0810   11.2690   25.9490 C   0  0  0  0  0  0  0  0  0  0  0  0
  1  2  1  0
  2  3  2  0
  3  4  1  0
  4  5  2  0
  5  6  1  0
  6  7  2  0
  7  8  1  0
  8  9  2  0
  9 10  1  0
 10 11  1  0
 11 12  2  0
  9  4  1  0
 12  8  1  0
A    1
 C1 
A    2
 C2 
A    3
 C3 
A    4
 C4 
A    5
 C5 
A    6
 C6 
A    7
 C7 
A    8
 C8 
A    9
 C9 
A   10
 N1 
A   11
 C10
A   12
 C11
M  END
>  <ref_pdb>  (175) 
x0554_0A

>  <ref_mols>  (175) 
x0554_0A,x0451_0A

>  <original SMILES>  (175) 
C/C=C/c1cccc2cc[nH]c12

>  <rationale>  (175) 
info cluster #6 (rank 18); hydroph_interaction:Y89; 

>  <cluster_rank>  (175) 
18

>  <N_interactions>  (175) 
1

>  <N_interactions_lost>  (175) 
0

>  <∆∆G>  (175) 
-5.92912

>  <comRMSD>  (175) 
0.814937

>  <N_rotatable_bonds>  (175) 
2

>  <N_unconstrained_atoms>  (175) 
0

>  <N_constrained_atoms>  (175) 
15

>  <price>  (175) 
0

$$$$
Z1346007342
     RDKit          3D

 12 12  0  0  0  0  0  0  0  0999 V2000
   11.9240   14.3570   22.1370 C   0  0  0  0  0  0  0  0  0  0  0  0
   11.3280   13.5590   23.2610 C   0  0  0  0  0  0  0  0  0  0  0  0
   11.1920   14.0560   24.3760 O   0  0  0  0  0  0  0  0  0  0  0  0
   10.9740   12.2790   22.9030 N   0  0  0  0  0  0  0  0  0  0  0  0
   10.0500   11.5320   23.6290 C   0  0  0  0  0  0  0  0  0  0  0  0
    9.1190   12.2260   24.3790 C   0  0  0  0  0  0  0  0  0  0  0  0
    8.0740   11.5040   25.2180 C   0  0  0  0  0  0  0  0  0  0  0  0
    6.8230   12.4530   26.2280 Br  0  0  0  0  0  0  0  0  0  0  0  0
    8.1140   10.0010   25.1820 C   0  0  0  0  0  0  0  0  0  0  0  0
    9.0630    9.3360   24.4070 C   0  0  0  0  0  0  0  0  0  0  0  0
   10.0660   10.1290   23.6020 C   0  0  0  0  0  0  0  0  0  0  0  0
   10.9940    9.4760   22.8490 O   0  0  0  0  0  0  0  0  0  0  0  0
  1  2  1  0
  2  3  2  0
  2  4  1  0
  4  5  1  0
  5  6  2  0
  6  7  1  0
  7  8  1  0
  7  9  2  0
  9 10  1  0
 10 11  2  0
 11 12  1  0
 11  5  1  0
A    1
 C1 
A    2
 C2 
A    3
 O1 
A    4
 N1 
A    5
 C3 
A    6
 C4 
A    7
 C5 
A    8
BR1 
A    9
 C6 
A   10
 C7 
A   11
 C8 
A   12
 O2 
M  END
>  <ref_pdb>  (176) 
x0554_0A

>  <ref_mols>  (176) 
x0554_0A,x0556_0A

>  <original SMILES>  (176) 
CC(=O)Nc1cc(Br)ccc1O

>  <rationale>  (176) 
info cluster #0 (rank 18); hbond:A110+S125; 

>  <cluster_rank>  (176) 
18

>  <N_interactions>  (176) 
3

>  <N_interactions_lost>  (176) 
1

>  <∆∆G>  (176) 
-5.465522

>  <comRMSD>  (176) 
0.981774

>  <N_rotatable_bonds>  (176) 
3

>  <N_unconstrained_atoms>  (176) 
1

>  <N_constrained_atoms>  (176) 
12

>  <price>  (176) 
0

$$$$
Z5290484651
     RDKit          3D

 20 21  0  0  0  0  0  0  0  0999 V2000
   11.6930   14.2610   22.1620 C   0  0  0  0  0  0  0  0  0  0  0  0
   10.3420   13.8150   22.3920 O   0  0  0  0  0  0  0  0  0  0  0  0
    9.9040   13.9370   23.6770 C   0  0  0  0  0  0  0  0  0  0  0  0
   10.0590   14.9230   24.3720 O   0  0  0  0  0  0  0  0  0  0  0  0
    9.2050   12.6420   24.1740 C   0  0  0  0  0  0  0  0  0  0  0  0
    9.9010   11.5310   23.7000 C   0  0  0  0  0  0  0  0  0  0  0  0
    9.4510   10.1160   24.0520 C   0  0  0  0  0  0  0  0  0  0  0  0
   10.1390    8.9900   23.5760 C   0  0  0  0  0  0  0  0  0  0  0  0
    8.3510   10.0420   24.8560 C   0  0  0  0  0  0  0  0  0  0  0  0
    7.6460   11.2000   25.3160 N   0  0  0  0  0  0  0  0  0  0  0  0
    8.0310   12.4520   25.0000 C   0  0  0  0  0  0  0  0  0  0  0  0
    7.2280   13.5210   25.5310 N   0  0  0  0  0  0  0  0  0  0  0  0
    5.8910   13.5460   26.0040 C   0  0  0  0  0  0  0  0  0  0  0  0
    5.1340   14.5090   25.9720 O   0  0  0  0  0  0  0  0  0  0  0  0
    5.4210   12.3540   26.5760 C   0  0  1  0  0  0  0  0  0  0  0  0
    6.1380   11.7900   27.7620 C   0  0  0  0  0  0  0  0  0  0  0  0
    5.4210   12.1770   29.0610 C   0  0  1  0  0  0  0  0  0  0  0  0
    6.2080   13.2210   29.8520 C   0  0  0  0  0  0  0  0  0  0  0  0
    4.1030   12.7210   28.5120 C   0  0  0  0  0  0  0  0  0  0  0  0
    4.0670   12.4840   27.0820 O   0  0  0  0  0  0  0  0  0  0  0  0
  1  2  1  0
  2  3  1  0
  3  4  2  0
  3  5  1  0
  5  6  2  0
  6  7  1  0
  7  8  1  0
  7  9  2  0
  9 10  1  0
 10 11  2  0
 11 12  1  0
 12 13  1  0
 13 14  2  0
 15 13  1  1
 15 16  1  0
 16 17  1  0
 17 18  1  6
 17 19  1  0
 19 20  1  0
 11  5  1  0
 20 15  1  0
A    1
 C1 
A    2
 O1 
A    3
 C2 
A    4
 O2 
A    5
 C3 
A    6
 C4 
A    7
 C5 
A    8
 C6 
A    9
 C7 
A   10
 N1 
A   11
 C8 
A   12
 N2 
A   13
 C9 
A   14
 O3 
A   15
 C10
A   16
 C11
A   17
 C12
A   18
 C13
A   19
 C14
A   20
 O4 
M  END
>  <ref_pdb>  (177) 
x0554_0A

>  <ref_mols>  (177) 
x0416_0A,x0451_0A

>  <original SMILES>  (177) 
COC(=O)c1cc(C)cnc1NC(=O)C1CC(C)CO1

>  <rationale>  (177) 
info cluster #7 (rank 18); hbond:S87; hydroph_interaction:D109+V124; 

>  <cluster_rank>  (177) 
18

>  <N_interactions>  (177) 
3

>  <N_interactions_lost>  (177) 
0

>  <∆∆G>  (177) 
-6.858206

>  <comRMSD>  (177) 
0.617502

>  <N_rotatable_bonds>  (177) 
6

>  <N_unconstrained_atoms>  (177) 
1

>  <N_constrained_atoms>  (177) 
21

>  <price>  (177) 
0

$$$$
Z5282317946
     RDKit          3D

 17 18  0  0  0  0  0  0  0  0999 V2000
   11.1090   14.8460   19.7100 C   0  0  0  0  0  0  0  0  0  0  0  0
   10.1730   15.3360   20.8100 C   0  0  2  0  0  0  0  0  0  0  0  0
   10.0480   16.8230   20.7600 N   0  0  0  0  0  0  0  0  0  0  0  0
   10.6140   14.8670   22.1980 C   0  0  0  0  0  0  0  0  0  0  0  0
   10.8770   15.6810   23.0830 O   0  0  0  0  0  0  0  0  0  0  0  0
   10.6640   13.4770   22.2820 N   0  0  0  0  0  0  0  0  0  0  0  0
   10.8860   12.6900   23.4110 C   0  0  0  0  0  0  0  0  0  0  0  0
   10.0230   11.6350   23.7870 C   0  0  0  0  0  0  0  0  0  0  0  0
   10.2080   10.3060   23.3790 C   0  0  0  0  0  0  0  0  0  0  0  0
    9.3620    9.3050   23.7840 C   0  0  0  0  0  0  0  0  0  0  0  0
    8.2040    9.6110   24.6860 C   0  0  0  0  0  0  0  0  0  0  0  0
    8.0090   10.9170   25.0800 C   0  0  0  0  0  0  0  0  0  0  0  0
    8.9050   11.9070   24.6330 C   0  0  0  0  0  0  0  0  0  0  0  0
    8.4630   13.1840   25.1940 N   0  0  0  0  0  0  0  0  0  0  0  0
    7.2930   12.9500   25.9150 C   0  0  0  0  0  0  0  0  0  0  0  0
    6.5870   13.7970   26.4710 O   0  0  0  0  0  0  0  0  0  0  0  0
    6.9350   11.4970   25.9700 C   0  0  0  0  0  0  0  0  0  0  0  0
  2  1  1  6
  2  3  1  0
  2  4  1  0
  4  5  2  0
  4  6  1  0
  6  7  1  0
  7  8  1  0
  8  9  2  0
  9 10  1  0
 10 11  2  0
 11 12  1  0
 12 13  2  0
 13 14  1  0
 14 15  1  0
 15 16  2  0
 15 17  1  0
 13  8  1  0
 17 12  1  0
A    1
 C1 
A    2
 C2 
A    3
 N1 
A    4
 C3 
A    5
 O1 
A    6
 N2 
A    7
 C4 
A    8
 C5 
A    9
 C6 
A   10
 C7 
A   11
 C8 
A   12
 C9 
A   13
 C10
A   14
 N3 
A   15
 C11
A   16
 O2 
A   17
 C12
M  END
>  <ref_pdb>  (178) 
x0554_0A

>  <ref_mols>  (178) 
x0554_0A

>  <original SMILES>  (178) 
CC(N)C(=O)NCc1cccc2c1NC(=O)C2

>  <rationale>  (178) 
info cluster #3 (rank 18); hbond:S87+S125; 

>  <cluster_rank>  (178) 
18

>  <N_interactions>  (178) 
3

>  <N_interactions_lost>  (178) 
1

>  <∆∆G>  (178) 
-8.061207

>  <comRMSD>  (178) 
0.442487

>  <N_rotatable_bonds>  (178) 
5

>  <N_unconstrained_atoms>  (178) 
3

>  <N_constrained_atoms>  (178) 
14

>  <price>  (178) 
0

$$$$
Z3953578298
     RDKit          3D

 14 15  0  0  0  0  0  0  0  0999 V2000
    9.4130   15.1330   21.2270 C   0  0  0  0  0  0  0  0  0  0  0  0
    9.0290   14.2440   22.2930 N   0  0  0  0  0  0  0  0  0  0  0  0
   10.2850   13.6670   23.2630 S   0  0  0  0  0  6  0  0  0  0  0  0
   11.4430   13.4850   22.4210 O   0  0  0  0  0  0  0  0  0  0  0  0
   10.3550   14.4960   24.4400 O   0  0  0  0  0  0  0  0  0  0  0  0
    9.7000   12.0820   23.7750 C   0  0  0  0  0  0  0  0  0  0  0  0
   10.3670   10.8530   23.2820 C   0  0  0  0  0  0  0  0  0  0  0  0
    9.9410    9.5960   23.6580 C   0  0  0  0  0  0  0  0  0  0  0  0
    8.7980    9.5060   24.5760 C   0  0  0  0  0  0  0  0  0  0  0  0
    8.1650   10.6560   25.0450 C   0  0  0  0  0  0  0  0  0  0  0  0
    8.5970   11.9590   24.6560 C   0  0  0  0  0  0  0  0  0  0  0  0
    7.8790   12.9880   25.1920 N   0  0  0  0  0  0  0  0  0  0  0  0
    6.8290   12.5030   26.0420 C   0  0  0  0  0  0  0  0  0  0  0  0
    6.7990   10.7920   26.1250 S   0  0  0  0  0  0  0  0  0  0  0  0
  1  2  1  0
  2  3  1  0
  3  4  2  0
  3  5  2  0
  3  6  1  0
  6  7  2  0
  7  8  1  0
  8  9  2  0
  9 10  1  0
 10 11  2  0
 11 12  1  0
 12 13  2  0
 13 14  1  0
 11  6  1  0
 14 10  1  0
A    1
 C1 
A    2
 N1 
A    3
 S1 
A    4
 O1 
A    5
 O2 
A    6
 C2 
A    7
 C3 
A    8
 C4 
A    9
 C5 
A   10
 C6 
A   11
 C7 
A   12
 N2 
A   13
 C8 
A   14
 S2 
M  END
>  <ref_pdb>  (179) 
x0554_0A

>  <ref_mols>  (179) 
x0566_0A,x0451_0A

>  <original SMILES>  (179) 
CNS(=O)(=O)c1cccc2scnc12

>  <rationale>  (179) 
info cluster #1 (rank 18); hbond:T126; 

>  <cluster_rank>  (179) 
18

>  <N_interactions>  (179) 
1

>  <N_interactions_lost>  (179) 
0

>  <∆∆G>  (179) 
-6.134912

>  <comRMSD>  (179) 
0.605104

>  <N_rotatable_bonds>  (179) 
3

>  <N_unconstrained_atoms>  (179) 
0

>  <N_constrained_atoms>  (179) 
15

>  <price>  (179) 
0

$$$$
PV_002978046853
     RDKit          3D

 11 11  0  0  0  0  0  0  0  0999 V2000
   12.0280   14.5320   21.8950 C   0  0  0  0  0  0  0  0  0  0  0  0
   10.7340   13.9740   22.1070 O   0  0  0  0  0  0  0  0  0  0  0  0
   10.4890   13.6920   23.4890 C   0  0  0  0  0  0  0  0  0  0  0  0
   10.7030   14.4860   24.3900 O   0  0  0  0  0  0  0  0  0  0  0  0
    9.9180   12.2890   23.7410 C   0  0  0  0  0  0  0  0  0  0  0  0
   10.1770   10.8830   23.3030 C   0  0  0  0  0  0  0  0  0  0  0  0
    9.2200   10.0320   23.9560 N   0  0  0  0  0  0  0  0  0  0  0  0
    9.2290    8.5910   23.7140 C   0  0  0  0  0  0  0  0  0  0  0  0
    8.3980   10.8660   24.7800 C   0  0  0  0  0  0  0  0  0  0  0  0
    7.3670   10.3310   25.5620 C   0  0  0  0  0  0  0  0  0  0  0  0
    8.8040   12.2120   24.6590 C   0  0  0  0  0  0  0  0  0  0  0  0
  1  2  1  0
  2  3  1  0
  3  4  2  0
  3  5  1  0
  5  6  2  0
  6  7  1  0
  7  8  1  0
  7  9  1  0
  9 10  1  0
  9 11  2  0
 11  5  1  0
A    1
 C1 
A    2
 O1 
A    3
 C2 
A    4
 O2 
A    5
 C3 
A    6
 C4 
A    7
 N1 
A    8
 C5 
A    9
 C6 
A   10
 C7 
A   11
 C8 
M  END
>  <ref_pdb>  (180) 
x0554_0A

>  <ref_mols>  (180) 
x0451_0A,x0310_0A

>  <original SMILES>  (180) 
COC(=O)c1cc(C)n(C)c1

>  <rationale>  (180) 
info cluster #4 (rank 18); saltbridge:H21; 

>  <cluster_rank>  (180) 
18

>  <N_interactions>  (180) 
1

>  <N_interactions_lost>  (180) 
0

>  <∆∆G>  (180) 
-6.800525

>  <comRMSD>  (180) 
0.857902

>  <N_rotatable_bonds>  (180) 
4

>  <N_unconstrained_atoms>  (180) 
0

>  <N_constrained_atoms>  (180) 
13

>  <price>  (180) 
0

$$$$
PV_003459463239
     RDKit          3D

 14 14  0  0  0  0  0  0  0  0999 V2000
   11.0070   14.8610   19.9140 C   0  0  0  0  0  0  0  0  0  0  0  0
    9.9100   15.5150   20.7500 C   0  0  2  0  0  0  0  0  0  0  0  0
    9.9180   16.9650   20.5870 N   0  0  0  0  0  0  0  0  0  0  0  0
   10.0820   15.1500   22.2030 C   0  0  0  0  0  0  0  0  0  0  0  0
   10.8220   15.7470   22.9700 O   0  0  0  0  0  0  0  0  0  0  0  0
    9.2940   14.1160   22.5680 N   0  0  0  0  0  0  0  0  0  0  0  0
    9.0070   13.8840   23.8760 C   0  0  0  0  0  0  0  0  0  0  0  0
    8.6540   12.6340   24.3110 C   0  0  0  0  0  0  0  0  0  0  0  0
    9.5070   11.6360   23.8180 C   0  0  0  0  0  0  0  0  0  0  0  0
    9.3780   10.2270   24.1210 N   0  0  0  0  0  0  0  0  0  0  0  0
    8.2500   10.0610   24.9960 C   0  0  0  0  0  0  0  0  0  0  0  0
    7.4080   10.9810   25.4880 N   0  0  0  0  0  0  0  0  0  0  0  0
    7.6170   12.2630   25.1390 C   0  0  0  0  0  0  0  0  0  0  0  0
    6.7270   13.2080   25.6660 N   0  0  0  0  0  0  0  0  0  0  0  0
  2  1  1  6
  2  3  1  0
  2  4  1  0
  4  5  2  0
  4  6  1  0
  6  7  1  0
  7  8  1  0
  8  9  2  0
  9 10  1  0
 10 11  2  0
 11 12  1  0
 12 13  2  0
 13 14  1  0
 13  8  1  0
A    1
 C1 
A    2
 C2 
A    3
 N1 
A    4
 C3 
A    5
 O1 
A    6
 N2 
A    7
 C4 
A    8
 C5 
A    9
 C6 
A   10
 N3 
A   11
 C7 
A   12
 N4 
A   13
 C8 
A   14
 N5 
M  END
>  <ref_pdb>  (181) 
x0554_0A

>  <ref_mols>  (181) 
x0416_0A

>  <original SMILES>  (181) 
CC(N)C(=O)NCc1cncnc1N

>  <rationale>  (181) 
info cluster #9 (rank 18); hbond:S87+T126; 

>  <cluster_rank>  (181) 
18

>  <N_interactions>  (181) 
3

>  <N_interactions_lost>  (181) 
1

>  <∆∆G>  (181) 
-6.001997

>  <comRMSD>  (181) 
0.485273

>  <N_rotatable_bonds>  (181) 
6

>  <N_unconstrained_atoms>  (181) 
2

>  <N_constrained_atoms>  (181) 
12

>  <price>  (181) 
0

$$$$
Z1356082022
     RDKit          3D

 12 12  0  0  0  0  0  0  0  0999 V2000
   12.1240   14.9480   21.7210 C   0  0  0  0  0  0  0  0  0  0  0  0
   11.0610   14.0010   21.9650 N   0  0  0  0  0  0  0  0  0  0  0  0
   10.3840   14.0380   23.1690 C   0  0  0  0  0  0  0  0  0  0  0  0
   11.1290   14.6390   24.5240 S   0  0  0  0  0  0  0  0  0  0  0  0
    9.1310   13.5960   23.3070 N   0  0  0  0  0  0  0  0  0  0  0  0
    8.7760   12.3690   23.9380 C   0  0  0  0  0  0  0  0  0  0  0  0
    7.7720   12.1840   24.8990 C   0  0  0  0  0  0  0  0  0  0  0  0
    7.4940   10.9900   25.4610 N   0  0  0  0  0  0  0  0  0  0  0  0
    8.2420    9.9460   25.0450 C   0  0  0  0  0  0  0  0  0  0  0  0
    9.2490   10.0200   24.0970 C   0  0  0  0  0  0  0  0  0  0  0  0
   10.0050    8.8540   23.6830 C   0  0  0  0  0  0  0  0  0  0  0  0
    9.5160   11.2510   23.5480 C   0  0  0  0  0  0  0  0  0  0  0  0
  1  2  1  0
  2  3  1  0
  3  4  2  0
  3  5  1  0
  5  6  1  0
  6  7  2  0
  7  8  1  0
  8  9  2  0
  9 10  1  0
 10 11  1  0
 10 12  2  0
 12  6  1  0
A    1
 C1 
A    2
 N1 
A    3
 C2 
A    4
 S1 
A    5
 N2 
A    6
 C3 
A    7
 C4 
A    8
 N3 
A    9
 C5 
A   10
 C6 
A   11
 C7 
A   12
 C8 
M  END
>  <ref_pdb>  (182) 
x0554_0A

>  <ref_mols>  (182) 
x0416_0A,x0451_0A

>  <original SMILES>  (182) 
CNC(=S)Nc1cncc(C)c1

>  <rationale>  (182) 
info cluster #8 (rank 19); hbond:S125+T126; hydroph_interaction:D109+V124; 

>  <cluster_rank>  (182) 
19

>  <N_interactions>  (182) 
4

>  <N_interactions_lost>  (182) 
1

>  <∆∆G>  (182) 
-7.025181

>  <comRMSD>  (182) 
0.618024

>  <N_rotatable_bonds>  (182) 
3

>  <N_unconstrained_atoms>  (182) 
1

>  <N_constrained_atoms>  (182) 
13

>  <price>  (182) 
0

$$$$
Z1437037762
     RDKit          3D

 14 14  0  0  0  0  0  0  0  0999 V2000
    6.6700   12.5430   26.9320 C   0  0  0  0  0  0  0  0  0  0  0  0
    6.4870   11.5840   25.8630 N   0  0  0  0  0  0  0  0  0  0  0  0
    7.5690   11.0940   25.1360 C   0  0  0  0  0  0  0  0  0  0  0  0
    7.7800    9.6210   25.0830 C   0  0  0  0  0  0  0  0  0  0  0  0
    8.8190    9.0950   24.3720 C   0  0  0  0  0  0  0  0  0  0  0  0
    9.7340   10.0440   23.6610 C   0  0  0  0  0  0  0  0  0  0  0  0
   10.7470    9.1930   22.9990 C   0  0  0  0  0  0  0  0  0  0  0  0
    9.5730   11.4340   23.6920 C   0  0  0  0  0  0  0  0  0  0  0  0
   10.4990   12.3160   22.9800 N   0  0  0  0  0  0  0  0  0  0  0  0
   11.0750   13.4630   23.4640 C   0  0  0  0  0  0  0  0  0  0  0  0
   11.8620   14.2990   22.4530 C   0  0  0  0  0  0  0  0  0  0  0  0
   11.0020   13.8540   24.6190 O   0  0  0  0  0  0  0  0  0  0  0  0
    8.4670   11.9640   24.4400 C   0  0  0  0  0  0  0  0  0  0  0  0
    8.2430   13.4080   24.4930 C   0  0  0  0  0  0  0  0  0  0  0  0
  1  2  1  0
  2  3  1  0
  3  4  2  0
  4  5  1  0
  5  6  2  0
  6  7  1  0
  6  8  1  0
  8  9  1  0
  9 10  1  0
 10 11  1  0
 10 12  2  0
  8 13  2  0
 13 14  1  0
 13  3  1  0
A    1
 C1 
A    2
 N1 
A    3
 C2 
A    4
 C3 
A    5
 C4 
A    6
 C5 
A    7
 C6 
A    8
 C7 
A    9
 N2 
A   10
 C8 
A   11
 C9 
A   12
 O1 
A   13
 C10
A   14
 C11
M  END
>  <ref_pdb>  (183) 
x0554_0A

>  <ref_mols>  (183) 
x0554_0A,x0310_0A

>  <original SMILES>  (183) 
CNc1ccc(C)c(NC(C)=O)c1C

>  <rationale>  (183) 
info cluster #5 (rank 19); hbond:S125+G127; hydroph_interaction:Y89+A110+V124; 

>  <cluster_rank>  (183) 
19

>  <N_interactions>  (183) 
5

>  <N_interactions_lost>  (183) 
2

>  <∆∆G>  (183) 
-8.887991

>  <comRMSD>  (183) 
0.610543

>  <N_rotatable_bonds>  (183) 
6

>  <N_unconstrained_atoms>  (183) 
2

>  <N_constrained_atoms>  (183) 
13

>  <price>  (183) 
0

$$$$
Z4167435496
     RDKit          3D

 17 18  0  0  0  0  0  0  0  0999 V2000
   10.7220   14.8890   19.5420 C   0  0  0  0  0  0  0  0  0  0  0  0
   10.2440   15.3090   20.9290 C   0  0  2  0  0  0  0  0  0  0  0  0
    9.8420   16.7170   20.8990 N   0  0  0  0  0  0  0  0  0  0  0  0
   11.3490   15.0660   21.9450 C   0  0  2  0  0  0  0  0  0  0  0  0
   12.5700   15.3460   21.3750 C   0  0  0  0  0  0  0  0  0  0  0  0
   11.3250   13.6880   22.4820 N   0  0  0  0  0  0  0  0  0  0  0  0
   10.3840   13.5820   23.5960 C   0  0  0  0  0  0  0  0  0  0  0  0
    9.7830   12.2060   23.8170 C   0  0  0  0  0  0  0  0  0  0  0  0
   10.2210   11.0860   23.2130 N   0  0  0  0  0  0  0  0  0  0  0  0
    9.4090   10.1260   23.6970 N   0  0  0  0  0  0  0  0  0  0  0  0
    9.5930    8.7690   23.2470 C   0  0  0  0  0  0  0  0  0  0  0  0
    8.4790   10.5940   24.5900 C   0  0  0  0  0  0  0  0  0  0  0  0
    7.3950    9.9830   25.3930 C   0  0  0  0  0  0  0  0  0  0  0  0
    6.6230   10.7220   26.1990 C   0  0  0  0  0  0  0  0  0  0  0  0
    6.7960   12.1000   26.3320 C   0  0  0  0  0  0  0  0  0  0  0  0
    7.7980   12.7640   25.6160 C   0  0  0  0  0  0  0  0  0  0  0  0
    8.6990   11.9430   24.6810 C   0  0  0  0  0  0  0  0  0  0  0  0
  2  1  1  6
  2  3  1  0
  2  4  1  0
  4  5  1  6
  4  6  1  0
  6  7  1  0
  7  8  1  0
  8  9  2  0
  9 10  1  0
 10 11  1  0
 10 12  1  0
 12 13  2  0
 13 14  1  0
 14 15  2  0
 15 16  1  0
 16 17  2  0
 17  8  1  0
 17 12  1  0
A    1
 C1 
A    2
 C2 
A    3
 N1 
A    4
 C3 
A    5
 C4 
A    6
 N2 
A    7
 C5 
A    8
 C6 
A    9
 N3 
A   10
 N4 
A   11
 C7 
A   12
 C8 
A   13
 C9 
A   14
 C10
A   15
 C11
A   16
 C12
A   17
 C13
M  END
>  <ref_pdb>  (184) 
x0554_0A

>  <ref_mols>  (184) 
x0451_0A

>  <original SMILES>  (184) 
CC(N)C(C)NCc1nn(C)c2ccccc12

>  <rationale>  (184) 
info cluster #2 (rank 19); hbond:H21+S87; hydroph_interaction:Y89+Y90; 

>  <cluster_rank>  (184) 
19

>  <N_interactions>  (184) 
4

>  <N_interactions_lost>  (184) 
1

>  <∆∆G>  (184) 
-10.661568

>  <comRMSD>  (184) 
0.569435

>  <N_rotatable_bonds>  (184) 
8

>  <N_unconstrained_atoms>  (184) 
1

>  <N_constrained_atoms>  (184) 
18

>  <price>  (184) 
0

$$$$
Z3185013611
     RDKit          3D

 15 16  0  0  0  0  0  0  0  0999 V2000
   11.8740   14.4230   22.0840 C   0  0  0  0  0  0  0  0  0  0  0  0
   10.9200   13.3810   22.3980 N   0  0  0  0  0  0  0  0  0  0  0  0
   10.3890   13.3030   23.6800 C   0  0  0  0  0  0  0  0  0  0  0  0
   10.5840   14.2110   24.4900 O   0  0  0  0  0  0  0  0  0  0  0  0
    9.5770   12.1060   24.0390 C   0  0  0  0  0  0  0  0  0  0  0  0
    9.8600   10.8180   23.6220 C   0  0  0  0  0  0  0  0  0  0  0  0
   10.9640   10.3400   22.7990 C   0  0  0  0  0  0  0  0  0  0  0  0
    8.9260    9.9410   24.1050 N   0  0  0  0  0  0  0  0  0  0  0  0
    8.9280    8.5880   23.8460 C   0  0  0  0  0  0  0  0  0  0  0  0
    8.0300   10.6630   24.8790 C   0  0  0  0  0  0  0  0  0  0  0  0
    6.8440   10.1340   25.6370 C   0  0  0  0  0  0  0  0  0  0  0  0
    6.1560   11.1290   26.3130 C   0  0  0  0  0  0  0  0  0  0  0  0
    6.5660   12.5510   26.2740 C   0  0  0  0  0  0  0  0  0  0  0  0
    7.6830   12.9710   25.5470 C   0  0  0  0  0  0  0  0  0  0  0  0
    8.4350   12.0080   24.8330 C   0  0  0  0  0  0  0  0  0  0  0  0
  1  2  1  0
  2  3  1  0
  3  4  2  0
  3  5  1  0
  5  6  2  0
  6  7  1  0
  6  8  1  0
  8  9  1  0
  8 10  1  0
 10 11  2  0
 11 12  1  0
 12 13  2  0
 13 14  1  0
 14 15  2  0
 15  5  1  0
 15 10  1  0
A    1
 C1 
A    2
 N1 
A    3
 C2 
A    4
 O1 
A    5
 C3 
A    6
 C4 
A    7
 C5 
A    8
 N2 
A    9
 C6 
A   10
 C7 
A   11
 C8 
A   12
 C9 
A   13
 C10
A   14
 C11
A   15
 C12
M  END
>  <ref_pdb>  (185) 
x0554_0A

>  <ref_mols>  (185) 
x0451_0A,x0451_0A

>  <original SMILES>  (185) 
CNC(=O)c1c(C)n(C)c2ccccc12

>  <rationale>  (185) 
info cluster #0 (rank 19); hbond:S125; hydroph_interaction:A110; 

>  <cluster_rank>  (185) 
19

>  <N_interactions>  (185) 
2

>  <N_interactions_lost>  (185) 
1

>  <∆∆G>  (185) 
-8.661571

>  <comRMSD>  (185) 
0.584834

>  <N_rotatable_bonds>  (185) 
4

>  <N_unconstrained_atoms>  (185) 
1

>  <N_constrained_atoms>  (185) 
14

>  <price>  (185) 
0

$$$$
Z3853327583
     RDKit          3D

 14 15  0  0  0  0  0  0  0  0999 V2000
   12.1340   14.9250   21.5540 C   0  0  0  0  0  0  0  0  0  0  0  0
   11.5680   13.6970   22.1300 N   0  0  0  0  0  0  0  0  0  0  0  0
   10.1480   13.8910   23.0170 S   0  0  0  0  0  6  0  0  0  0  0  0
   10.4980   14.6700   24.1790 O   0  0  0  0  0  0  0  0  0  0  0  0
    9.0910   14.2740   22.1030 O   0  0  0  0  0  0  0  0  0  0  0  0
    9.6220   12.4090   23.6660 C   0  0  0  0  0  0  0  0  0  0  0  0
   10.1560   11.0180   23.3980 C   0  0  0  0  0  0  0  0  0  0  0  0
    9.4890   10.0830   24.0870 O   0  0  0  0  0  0  0  0  0  0  0  0
    8.5380   10.7870   24.8010 C   0  0  0  0  0  0  0  0  0  0  0  0
    7.5340   10.1420   25.7380 C   0  0  0  0  0  0  0  0  0  0  0  0
    6.6340   11.0830   26.3740 C   0  0  0  0  0  0  0  0  0  0  0  0
    6.7050   12.4500   26.1370 C   0  0  0  0  0  0  0  0  0  0  0  0
    7.6550   12.9980   25.2620 C   0  0  0  0  0  0  0  0  0  0  0  0
    8.5730   12.1840   24.5880 C   0  0  0  0  0  0  0  0  0  0  0  0
  1  2  1  0
  2  3  1  0
  3  4  2  0
  3  5  2  0
  3  6  1  0
  6  7  2  0
  7  8  1  0
  8  9  1  0
  9 10  2  0
 10 11  1  0
 11 12  2  0
 12 13  1  0
 13 14  2  0
 14  6  1  0
 14  9  1  0
A    1
 C1 
A    2
 N1 
A    3
 S1 
A    4
 O1 
A    5
 O2 
A    6
 C2 
A    7
 C3 
A    8
 O3 
A    9
 C4 
A   10
 C5 
A   11
 C6 
A   12
 C7 
A   13
 C8 
A   14
 C9 
M  END
>  <ref_pdb>  (186) 
x0554_0A

>  <ref_mols>  (186) 
x0451_0A,x0566_0A

>  <original SMILES>  (186) 
CNS(=O)(=O)c1coc2ccccc12

>  <rationale>  (186) 
info cluster #6 (rank 19); hbond:H21; 

>  <cluster_rank>  (186) 
19

>  <N_interactions>  (186) 
1

>  <N_interactions_lost>  (186) 
0

>  <∆∆G>  (186) 
-7.030459

>  <comRMSD>  (186) 
0.565874

>  <N_rotatable_bonds>  (186) 
3

>  <N_unconstrained_atoms>  (186) 
0

>  <N_constrained_atoms>  (186) 
14

>  <price>  (186) 
0

$$$$
Z3027677748
     RDKit          3D

 16 16  0  0  0  0  0  0  0  0999 V2000
   10.2300    8.7730   23.2090 C   0  0  0  0  0  0  0  0  0  0  0  0
    9.3990    9.9180   23.7450 C   0  0  0  0  0  0  0  0  0  0  0  0
    8.3720    9.5930   24.5970 N   0  0  0  0  0  0  0  0  0  0  0  0
    7.8400   10.8000   24.8780 N   0  0  0  0  0  0  0  0  0  0  0  0
    6.7070   10.8440   25.7770 C   0  0  0  0  0  0  0  0  0  0  0  0
    8.4880   11.8510   24.2340 C   0  0  0  0  0  0  0  0  0  0  0  0
    8.1110   13.3320   24.3340 C   0  0  0  0  0  0  0  0  0  0  0  0
    8.4170   13.9460   23.0420 N   0  0  0  0  0  0  0  0  0  0  0  0
    9.5660   14.6930   22.8360 C   0  0  0  0  0  0  0  0  0  0  0  0
   10.4360   14.9600   23.6520 O   0  0  0  0  0  0  0  0  0  0  0  0
    9.8200   15.3000   21.4500 C   0  0  0  0  0  0  0  0  0  0  0  0
   10.7750   14.8900   20.5460 C   0  0  0  0  0  0  0  0  0  0  0  0
   11.1650   15.3760   19.1980 C   0  0  2  0  0  0  0  0  0  0  0  0
   10.1180   15.2280   18.1040 C   0  0  0  0  0  0  0  0  0  0  0  0
   12.3840   14.6920   18.7900 N   0  0  0  0  0  0  0  0  0  0  0  0
    9.5040   11.2820   23.5120 C   0  0  0  0  0  0  0  0  0  0  0  0
  1  2  1  0
  2  3  2  0
  3  4  1  0
  4  5  1  0
  4  6  1  0
  6  7  1  0
  7  8  1  0
  8  9  1  0
  9 10  2  0
  9 11  1  0
 11 12  2  3
 12 13  1  0
 13 14  1  6
 13 15  1  0
  6 16  2  0
 16  2  1  0
A    1
 C1 
A    2
 C2 
A    3
 N1 
A    4
 N2 
A    5
 C3 
A    6
 C4 
A    7
 C5 
A    8
 N3 
A    9
 C6 
A   10
 O1 
A   11
 C7 
A   12
 C8 
A   13
 C9 
A   14
 C10
A   15
 N4 
A   16
 C11
M  END
>  <ref_pdb>  (187) 
x0554_0A

>  <ref_mols>  (187) 
x0310_0A

>  <original SMILES>  (187) 
Cc1cc(CNC(=O)C=CC(C)N)n(C)n1

>  <rationale>  (187) 
info cluster #7 (rank 19); hbond:S87+S125+T126; hydroph_interaction:D109+V124; 

>  <cluster_rank>  (187) 
19

>  <N_interactions>  (187) 
5

>  <N_interactions_lost>  (187) 
1

>  <∆∆G>  (187) 
-9.367715

>  <comRMSD>  (187) 
0.581761

>  <N_rotatable_bonds>  (187) 
8

>  <N_unconstrained_atoms>  (187) 
4

>  <N_constrained_atoms>  (187) 
13

>  <price>  (187) 
0

$$$$
Z3242322328
     RDKit          3D

 17 18  0  0  0  0  0  0  0  0999 V2000
    8.6430   15.5580   21.3460 C   0  0  0  0  0  0  0  0  0  0  0  0
   10.1070   15.5000   21.0430 C   0  0  0  0  0  0  0  0  0  0  0  0
   10.7240   14.8260   19.8790 C   0  0  0  0  0  0  0  0  0  0  0  0
   10.5330   16.8090   20.9540 N   0  0  0  0  0  0  0  0  0  0  0  0
   10.6860   14.8730   22.3290 C   0  0  0  0  0  0  0  0  0  0  0  0
   11.1090   15.5510   23.2590 O   0  0  0  0  0  0  0  0  0  0  0  0
   10.6530   13.4780   22.3290 N   0  0  0  0  0  0  0  0  0  0  0  0
   11.0060   12.7300   23.4990 C   0  0  0  0  0  0  0  0  0  0  0  0
   10.0740   11.7460   23.8530 C   0  0  0  0  0  0  0  0  0  0  0  0
   10.3000   10.4240   23.4150 C   0  0  0  0  0  0  0  0  0  0  0  0
    9.4200    9.2270   23.7310 C   0  0  0  0  0  0  0  0  0  0  0  0
    8.2420    9.6170   24.5890 C   0  0  0  0  0  0  0  0  0  0  0  0
    8.0100   11.0160   25.0290 C   0  0  0  0  0  0  0  0  0  0  0  0
    8.9220   12.0000   24.6440 C   0  0  0  0  0  0  0  0  0  0  0  0
    8.4630   13.1870   25.1890 N   0  0  0  0  0  0  0  0  0  0  0  0
    7.3100   12.9590   25.8850 C   0  0  0  0  0  0  0  0  0  0  0  0
    7.0020   11.6330   25.8100 C   0  0  0  0  0  0  0  0  0  0  0  0
  1  2  1  0
  2  3  1  0
  2  4  1  0
  2  5  1  0
  5  6  2  0
  5  7  1  0
  7  8  1  0
  8  9  1  0
  9 10  2  0
 10 11  1  0
 11 12  2  0
 12 13  1  0
 13 14  2  0
 14 15  1  0
 15 16  1  0
 16 17  2  0
 14  9  1  0
 17 13  1  0
A    1
 C1 
A    2
 C2 
A    3
 C3 
A    4
 N1 
A    5
 C4 
A    6
 O1 
A    7
 N2 
A    8
 C5 
A    9
 C6 
A   10
 C7 
A   11
 C8 
A   12
 C9 
A   13
 C10
A   14
 C11
A   15
 N3 
A   16
 C12
A   17
 C13
M  END
>  <ref_pdb>  (188) 
x0554_0A

>  <ref_mols>  (188) 
x0554_0A

>  <original SMILES>  (188) 
CC(C)(N)C(=O)NCc1cccc2cc[nH]c12

>  <rationale>  (188) 
info cluster #3 (rank 19); hbond:S87+S125; hydroph_interaction:V84; 

>  <cluster_rank>  (188) 
19

>  <N_interactions>  (188) 
3

>  <N_interactions_lost>  (188) 
1

>  <∆∆G>  (188) 
-9.540654

>  <comRMSD>  (188) 
0.483613

>  <N_rotatable_bonds>  (188) 
6

>  <N_unconstrained_atoms>  (188) 
3

>  <N_constrained_atoms>  (188) 
14

>  <price>  (188) 
0

$$$$
Z2443609070
     RDKit          3D

 14 14  0  0  0  0  0  0  0  0999 V2000
    9.3270   16.3230   20.7100 C   0  0  0  0  0  0  0  0  0  0  0  0
   10.3790   15.3870   21.2560 C   0  0  2  0  0  0  0  0  0  0  0  0
   11.3890   14.9430   20.3040 C   0  0  0  0  0  0  0  0  0  0  0  0
   10.8240   13.9990   19.3410 N   0  0  0  0  0  0  0  0  0  0  0  0
    9.7240   14.1940   21.8610 N   0  0  0  0  0  0  0  0  0  0  0  0
   10.6230   13.3480   22.9930 S   0  0  0  0  0  6  0  0  0  0  0  0
   10.7510   14.2910   24.0540 O   0  0  0  0  0  0  0  0  0  0  0  0
   11.8380   12.8700   22.3930 O   0  0  0  0  0  0  0  0  0  0  0  0
    9.7520   11.9820   23.7180 C   0  0  0  0  0  0  0  0  0  0  0  0
   10.1530   10.6760   23.3980 C   0  0  0  0  0  0  0  0  0  0  0  0
    9.4340    9.6920   24.0660 C   0  0  0  0  0  0  0  0  0  0  0  0
    8.3660    9.9370   25.0070 C   0  0  0  0  0  0  0  0  0  0  0  0
    7.9970   11.2290   25.2700 C   0  0  0  0  0  0  0  0  0  0  0  0
    8.6920   12.2560   24.6240 C   0  0  0  0  0  0  0  0  0  0  0  0
  2  1  1  6
  2  3  1  0
  3  4  1  0
  2  5  1  0
  5  6  1  0
  6  7  2  0
  6  8  2  0
  6  9  1  0
  9 10  2  0
 10 11  1  0
 11 12  2  0
 12 13  1  0
 13 14  2  0
 14  9  1  0
A    1
 C1 
A    2
 C2 
A    3
 C3 
A    4
 N1 
A    5
 N2 
A    6
 S1 
A    7
 O1 
A    8
 O2 
A    9
 C4 
A   10
 C5 
A   11
 C6 
A   12
 C7 
A   13
 C8 
A   14
 C9 
M  END
>  <ref_pdb>  (189) 
x0554_0A

>  <ref_mols>  (189) 
x0566_0A

>  <original SMILES>  (189) 
C[C@H](CN)NS(=O)(=O)c1ccccc1

>  <rationale>  (189) 
info cluster #1 (rank 19); hbond:T126+D39; hydroph_interaction:V84; 

>  <cluster_rank>  (189) 
19

>  <N_interactions>  (189) 
3

>  <N_interactions_lost>  (189) 
0

>  <∆∆G>  (189) 
-6.505825

>  <comRMSD>  (189) 
0.961994

>  <N_rotatable_bonds>  (189) 
6

>  <N_unconstrained_atoms>  (189) 
2

>  <N_constrained_atoms>  (189) 
13

>  <price>  (189) 
0

$$$$
Z1041028566
     RDKit          3D

 16 16  0  0  0  0  0  0  0  0999 V2000
   10.6820   16.4130   21.1710 C   0  0  0  0  0  0  0  0  0  0  0  0
   11.3490   15.5890   21.7330 C   0  0  0  0  0  0  0  0  0  0  0  0
   12.0960   14.5640   22.3660 C   0  0  0  0  0  0  0  0  0  0  0  0
   11.6050   14.4410   23.6940 O   0  0  0  0  0  0  0  0  0  0  0  0
   11.0710   13.2620   24.1130 C   0  0  0  0  0  0  0  0  0  0  0  0
   11.3760   12.7070   25.1490 O   0  0  0  0  0  0  0  0  0  0  0  0
   10.1140   12.7870   23.2240 C   0  0  2  0  0  0  0  0  0  0  0  0
    9.2160   13.8090   22.6240 C   0  0  0  0  0  0  0  0  0  0  0  0
    9.3310   11.7560   23.8520 C   0  0  0  0  0  0  0  0  0  0  0  0
    8.1580   11.9160   24.7600 C   0  0  0  0  0  0  0  0  0  0  0  0
    7.7480   13.3300   25.0400 C   0  0  0  0  0  0  0  0  0  0  0  0
    7.7140   10.7100   25.1400 N   0  0  0  0  0  0  0  0  0  0  0  0
    6.6660   10.3870   25.9740 C   0  0  0  0  0  0  0  0  0  0  0  0
    8.4410    9.7090   24.5930 N   0  0  0  0  0  0  0  0  0  0  0  0
    9.4010   10.3080   23.8230 C   0  0  0  0  0  0  0  0  0  0  0  0
   10.3570    9.4080   23.0850 C   0  0  0  0  0  0  0  0  0  0  0  0
  1  2  3  0
  2  3  1  0
  3  4  1  0
  4  5  1  0
  5  6  2  0
  5  7  1  0
  7  8  1  1
  7  9  1  0
  9 10  2  0
 10 11  1  0
 10 12  1  0
 12 13  1  0
 12 14  1  0
 14 15  2  0
 15 16  1  0
 15  9  1  0
A    1
 C1 
A    2
 C2 
A    3
 C3 
A    4
 O1 
A    5
 C4 
A    6
 O2 
A    7
 C5 
A    8
 C6 
A    9
 C7 
A   10
 C8 
A   11
 C9 
A   12
 N1 
A   13
 C10
A   14
 N2 
A   15
 C11
A   16
 C12
M  END
>  <ref_pdb>  (190) 
x0554_0A

>  <ref_mols>  (190) 
x0310_0A,x0566_0A

>  <original SMILES>  (190) 
C#CCOC(=O)C(C)c1c(C)nn(C)c1C

>  <rationale>  (190) 
info cluster #4 (rank 19); hydroph_interaction:Y90+V124; saltbridge:H21; 

>  <cluster_rank>  (190) 
19

>  <N_interactions>  (190) 
3

>  <N_interactions_lost>  (190) 
0

>  <∆∆G>  (190) 
-7.867473

>  <comRMSD>  (190) 
0.874764

>  <N_rotatable_bonds>  (190) 
7

>  <N_unconstrained_atoms>  (190) 
1

>  <N_constrained_atoms>  (190) 
16

>  <price>  (190) 
0

$$$$
Z1687242291
     RDKit          3D

 13 13  0  0  0  0  0  0  0  0999 V2000
   11.3070   14.6340   19.9450 C   0  0  0  0  0  0  0  0  0  0  0  0
   10.3710   14.9020   21.0000 O   0  0  0  0  0  0  0  0  0  0  0  0
   10.9180   14.9230   22.2480 C   0  0  0  0  0  0  0  0  0  0  0  0
   10.9380   15.9970   23.0680 O   0  0  0  0  0  0  0  0  0  0  0  0
   11.4990   13.6200   22.6250 N   0  0  0  0  0  0  0  0  0  0  0  0
   11.0550   12.9920   23.8500 C   0  0  0  0  0  0  0  0  0  0  0  0
    9.8940   12.1980   23.3220 C   0  0  0  0  0  0  0  0  0  0  0  0
    8.9970   11.3840   24.2140 C   0  0  0  0  0  0  0  0  0  0  0  0
    7.9920   12.1430   25.0290 C   0  0  0  0  0  0  0  0  0  0  0  0
    7.3420   10.9960   25.7150 C   0  0  0  0  0  0  0  0  0  0  0  0
    7.9200    9.6970   25.3280 N   0  0  0  0  0  0  0  0  0  0  0  0
    8.8950   10.0340   24.4290 N   0  0  0  0  0  0  0  0  0  0  0  0
    9.6960    9.0010   23.8050 C   0  0  0  0  0  0  0  0  0  0  0  0
  1  2  1  0
  2  3  1  0
  3  4  2  0
  3  5  1  0
  5  6  1  0
  6  7  1  0
  7  8  1  0
  8  9  2  0
  9 10  1  0
 10 11  2  0
 11 12  1  0
 12 13  1  0
 12  8  1  0
A    1
 C1 
A    2
 O1 
A    3
 C2 
A    4
 O2 
A    5
 N1 
A    6
 C3 
A    7
 C4 
A    8
 C5 
A    9
 C6 
A   10
 C7 
A   11
 N2 
A   12
 N3 
A   13
 C8 
M  END
>  <ref_pdb>  (191) 
x0554_0A

>  <ref_mols>  (191) 
x0556_0A

>  <original SMILES>  (191) 
COC(=O)NCCc1ccnn1C

>  <rationale>  (191) 
info cluster #9 (rank 19); hbond:H21+S87; 

>  <cluster_rank>  (191) 
19

>  <N_interactions>  (191) 
2

>  <N_interactions_lost>  (191) 
1

>  <∆∆G>  (191) 
-6.607716

>  <comRMSD>  (191) 
0.572406

>  <N_rotatable_bonds>  (191) 
5

>  <N_unconstrained_atoms>  (191) 
2

>  <N_constrained_atoms>  (191) 
12

>  <price>  (191) 
0

$$$$
Z1355715161
     RDKit          3D

 12 12  0  0  0  0  0  0  0  0999 V2000
   12.1170   14.9350   21.6420 C   0  0  0  0  0  0  0  0  0  0  0  0
   11.0830   13.9940   22.0110 N   0  0  0  0  0  0  0  0  0  0  0  0
   10.5680   14.0560   23.2930 C   0  0  0  0  0  0  0  0  0  0  0  0
   11.1970   14.4840   24.2460 O   0  0  0  0  0  0  0  0  0  0  0  0
    9.2860   13.5940   23.3350 N   0  0  0  0  0  0  0  0  0  0  0  0
    8.9130   12.3920   23.9150 C   0  0  0  0  0  0  0  0  0  0  0  0
    7.9080   12.2800   24.8630 C   0  0  0  0  0  0  0  0  0  0  0  0
    7.5380   11.1230   25.4410 N   0  0  0  0  0  0  0  0  0  0  0  0
    8.2180   10.0390   25.0300 C   0  0  0  0  0  0  0  0  0  0  0  0
    9.2390    9.9710   24.0900 C   0  0  0  0  0  0  0  0  0  0  0  0
    9.9320    8.7020   23.6800 C   0  0  0  0  0  0  0  0  0  0  0  0
    9.5760   11.2330   23.5340 C   0  0  0  0  0  0  0  0  0  0  0  0
  1  2  1  0
  2  3  1  0
  3  4  2  0
  3  5  1  0
  5  6  1  0
  6  7  2  0
  7  8  1  0
  8  9  2  0
  9 10  1  0
 10 11  1  0
 10 12  2  0
 12  6  1  0
A    1
 C1 
A    2
 N1 
A    3
 C2 
A    4
 O1 
A    5
 N2 
A    6
 C3 
A    7
 C4 
A    8
 N3 
A    9
 C5 
A   10
 C6 
A   11
 C7 
A   12
 C8 
M  END
>  <ref_pdb>  (192) 
x0554_0A

>  <ref_mols>  (192) 
x0416_0A,x0451_0A

>  <original SMILES>  (192) 
CNC(=O)Nc1cncc(C)c1

>  <rationale>  (192) 
info cluster #8 (rank 20); hbond:S125+T126; hydroph_interaction:D109+V124; 

>  <cluster_rank>  (192) 
20

>  <N_interactions>  (192) 
4

>  <N_interactions_lost>  (192) 
1

>  <∆∆G>  (192) 
-6.556692

>  <comRMSD>  (192) 
0.713652

>  <N_rotatable_bonds>  (192) 
3

>  <N_unconstrained_atoms>  (192) 
0

>  <N_constrained_atoms>  (192) 
14

>  <price>  (192) 
0

$$$$
Z1431736677
     RDKit          3D

 20 21  0  0  0  0  0  0  0  0999 V2000
   11.9240   14.3170   22.0860 C   0  0  0  0  0  0  0  0  0  0  0  0
   11.3170   13.5340   23.2440 C   0  0  0  0  0  0  0  0  0  0  0  0
   11.2860   13.8710   24.4210 O   0  0  0  0  0  0  0  0  0  0  0  0
   10.7210   12.3270   23.0100 N   0  0  0  0  0  0  0  0  0  0  0  0
    9.6800   11.7750   23.7780 C   0  0  0  0  0  0  0  0  0  0  0  0
    8.7760   12.6840   24.3450 C   0  0  0  0  0  0  0  0  0  0  0  0
    7.6940   12.3030   25.1440 C   0  0  0  0  0  0  0  0  0  0  0  0
    6.9060   13.3830   25.6210 N   0  0  0  0  0  0  0  0  0  0  0  0
    5.5920   13.4370   26.0910 C   0  0  0  0  0  0  0  0  0  0  0  0
    4.8710   14.4280   26.0450 O   0  0  0  0  0  0  0  0  0  0  0  0
    5.1020   12.1550   26.7020 C   0  0  1  0  0  0  0  0  0  0  0  0
    5.9910   11.7160   27.8340 C   0  0  0  0  0  0  0  0  0  0  0  0
    5.2690   12.1950   29.0570 C   0  0  0  0  0  0  0  0  0  0  0  0
    3.8730   12.6020   28.7260 C   0  0  2  0  0  0  0  0  0  0  0  0
    2.8660   12.0890   29.5520 C   0  0  0  0  0  0  0  0  0  0  0  0
    3.7870   12.2740   27.3080 O   0  0  0  0  0  0  0  0  0  0  0  0
    7.4980   10.9500   25.3940 C   0  0  0  0  0  0  0  0  0  0  0  0
    8.4790    9.9480   24.7790 C   0  0  0  0  0  0  0  0  0  0  0  0
    9.5390   10.3880   23.9850 C   0  0  0  0  0  0  0  0  0  0  0  0
   10.4830    9.3110   23.3920 C   0  0  0  0  0  0  0  0  0  0  0  0
  1  2  1  0
  2  3  2  0
  2  4  1  0
  4  5  1  0
  5  6  2  0
  6  7  1  0
  7  8  1  0
  8  9  1  0
  9 10  2  0
 11  9  1  1
 11 12  1  0
 12 13  1  0
 13 14  1  0
 14 15  1  1
 14 16  1  0
  7 17  2  0
 17 18  1  0
 18 19  2  0
 19 20  1  0
 19  5  1  0
 16 11  1  0
A    1
 C1 
A    2
 C2 
A    3
 O1 
A    4
 N1 
A    5
 C3 
A    6
 C4 
A    7
 C5 
A    8
 N2 
A    9
 C6 
A   10
 O2 
A   11
 C7 
A   12
 C8 
A   13
 C9 
A   14
 C10
A   15
 C11
A   16
 O3 
A   17
 C12
A   18
 C13
A   19
 C14
A   20
 C15
M  END
>  <ref_pdb>  (193) 
x0554_0A

>  <ref_mols>  (193) 
x0416_0A,x0554_0A

>  <original SMILES>  (193) 
CC(=O)Nc1cc(NC(=O)C2CCC(C)O2)ccc1C

>  <rationale>  (193) 
info cluster #5 (rank 20); hbond:S125; hydroph_interaction:Y89+P107+A110+V124; 

>  <cluster_rank>  (193) 
20

>  <N_interactions>  (193) 
5

>  <N_interactions_lost>  (193) 
2

>  <∆∆G>  (193) 
-8.072996

>  <comRMSD>  (193) 
0.457836

>  <N_rotatable_bonds>  (193) 
6

>  <N_unconstrained_atoms>  (193) 
1

>  <N_constrained_atoms>  (193) 
19

>  <price>  (193) 
0

$$$$
Z89307585
     RDKit          3D

 15 16  0  0  0  0  0  0  0  0999 V2000
   11.9760   14.9280   20.2550 C   0  0  0  0  0  0  0  0  0  0  0  0
   11.8130   14.7160   21.7340 C   0  0  0  0  0  0  0  0  0  0  0  0
   10.9340   13.7150   22.0820 N   0  0  0  0  0  0  0  0  0  0  0  0
   10.5520   13.5270   23.4710 C   0  0  0  0  0  0  0  0  0  0  0  0
   10.7770   14.3260   24.3680 O   0  0  0  0  0  0  0  0  0  0  0  0
    9.8030   12.2380   23.8150 C   0  0  0  0  0  0  0  0  0  0  0  0
   10.1740   10.9050   23.2480 C   0  0  0  0  0  0  0  0  0  0  0  0
    9.2750    9.9370   23.7770 N   0  0  0  0  0  0  0  0  0  0  0  0
    9.3410    8.5380   23.4320 C   0  0  0  0  0  0  0  0  0  0  0  0
    8.4050   10.5600   24.6170 C   0  0  0  0  0  0  0  0  0  0  0  0
    7.3810   10.0540   25.3590 C   0  0  0  0  0  0  0  0  0  0  0  0
    6.5210   10.8900   26.2280 C   0  0  0  0  0  0  0  0  0  0  0  0
    6.7490   12.2670   26.3130 C   0  0  0  0  0  0  0  0  0  0  0  0
    7.7890   12.8330   25.5760 C   0  0  0  0  0  0  0  0  0  0  0  0
    8.6840   11.9540   24.6690 C   0  0  0  0  0  0  0  0  0  0  0  0
  1  2  1  0
  2  3  1  0
  3  4  1  0
  4  5  2  0
  4  6  1  0
  6  7  2  0
  7  8  1  0
  8  9  1  0
  8 10  1  0
 10 11  2  0
 11 12  1  0
 12 13  2  0
 13 14  1  0
 14 15  2  0
 15  6  1  0
 15 10  1  0
A    1
 C1 
A    2
 C2 
A    3
 N1 
A    4
 C3 
A    5
 O1 
A    6
 C4 
A    7
 C5 
A    8
 N2 
A    9
 C6 
A   10
 C7 
A   11
 C8 
A   12
 C9 
A   13
 C10
A   14
 C11
A   15
 C12
M  END
>  <ref_pdb>  (194) 
x0554_0A

>  <ref_mols>  (194) 
x0451_0A,x0451_0A

>  <original SMILES>  (194) 
CCNC(=O)c1cn(C)c2ccccc12

>  <rationale>  (194) 
info cluster #2 (rank 20); hbond:S125; hydroph_interaction:Y90; 

>  <cluster_rank>  (194) 
20

>  <N_interactions>  (194) 
2

>  <N_interactions_lost>  (194) 
1

>  <∆∆G>  (194) 
-9.069376

>  <comRMSD>  (194) 
0.369689

>  <N_rotatable_bonds>  (194) 
4

>  <N_unconstrained_atoms>  (194) 
1

>  <N_constrained_atoms>  (194) 
14

>  <price>  (194) 
0

$$$$
Z198194884
     RDKit          3D

 12 12  0  0  0  0  0  0  0  0999 V2000
   10.0140    9.1730   23.5280 C   0  0  0  0  0  0  0  0  0  0  0  0
    9.3020   10.3640   24.1620 C   0  0  0  0  0  0  0  0  0  0  0  0
    8.2650   10.0920   25.1050 C   0  0  0  0  0  0  0  0  0  0  0  0
    7.5530   11.1020   25.7360 C   0  0  0  0  0  0  0  0  0  0  0  0
    7.8880   12.4880   25.4220 C   0  0  0  0  0  0  0  0  0  0  0  0
    7.1130   13.5330   26.1280 N   0  0  0  0  0  0  0  0  0  0  0  0
    5.6470   13.4420   26.1610 C   0  0  0  0  0  0  0  0  0  0  0  0
    5.1820   12.1500   26.1230 N   0  0  0  0  0  0  0  0  0  0  0  0
    4.8400   14.3660   26.2270 O   0  0  0  0  0  0  0  0  0  0  0  0
    8.9150   12.7110   24.4940 C   0  0  0  0  0  0  0  0  0  0  0  0
    9.6020   11.6800   23.8830 C   0  0  0  0  0  0  0  0  0  0  0  0
   10.5700   11.9840   23.0180 F   0  0  0  0  0  0  0  0  0  0  0  0
  1  2  1  0
  2  3  2  0
  3  4  1  0
  4  5  2  0
  5  6  1  0
  6  7  1  0
  7  8  1  0
  7  9  2  0
  5 10  1  0
 10 11  2  0
 11 12  1  0
 11  2  1  0
A    1
 C1 
A    2
 C2 
A    3
 C3 
A    4
 C4 
A    5
 C5 
A    6
 N1 
A    7
 C6 
A    8
 N2 
A    9
 O1 
A   10
 C7 
A   11
 C8 
A   12
 F1 
M  END
>  <ref_pdb>  (195) 
x0554_0A

>  <ref_mols>  (195) 
x0416_0A,x0310_0A

>  <original SMILES>  (195) 
Cc1ccc(NC(N)=O)cc1F

>  <rationale>  (195) 
info cluster #6 (rank 20); halogenbond:S125; 

>  <cluster_rank>  (195) 
20

>  <N_interactions>  (195) 
1

>  <N_interactions_lost>  (195) 
0

>  <∆∆G>  (195) 
-5.243327

>  <comRMSD>  (195) 
0.707579

>  <N_rotatable_bonds>  (195) 
2

>  <N_unconstrained_atoms>  (195) 
1

>  <N_constrained_atoms>  (195) 
12

>  <price>  (195) 
0

$$$$
Z1578595689
     RDKit          3D

 12 12  0  0  0  0  0  0  0  0999 V2000
   11.8700   14.1240   22.3420 C   0  0  0  0  0  0  0  0  0  0  0  0
   11.1540   13.4050   23.4770 C   0  0  0  0  0  0  0  0  0  0  0  0
   11.1320   13.8940   24.5990 O   0  0  0  0  0  0  0  0  0  0  0  0
   10.5760   12.2040   23.0800 N   0  0  0  0  0  0  0  0  0  0  0  0
    9.5720   11.4300   23.7540 C   0  0  0  0  0  0  0  0  0  0  0  0
    9.6500   10.0220   23.7080 C   0  0  0  0  0  0  0  0  0  0  0  0
   10.7250    9.2560   23.0010 C   0  0  0  0  0  0  0  0  0  0  0  0
    8.6970    9.2540   24.3520 C   0  0  0  0  0  0  0  0  0  0  0  0
    7.5470    9.8750   25.1240 C   0  0  0  0  0  0  0  0  0  0  0  0
    7.5460   11.2510   25.1180 C   0  0  0  0  0  0  0  0  0  0  0  0
    8.5100   12.0050   24.4630 C   0  0  0  0  0  0  0  0  0  0  0  0
    8.4290   13.2430   24.5060 O   0  0  0  0  0  0  0  0  0  0  0  0
  1  2  1  0
  2  3  2  0
  2  4  1  0
  4  5  1  0
  5  6  2  0
  6  7  1  0
  6  8  1  0
  8  9  2  0
  9 10  1  0
 10 11  2  0
 11 12  1  0
 11  5  1  0
A    1
 C1 
A    2
 C2 
A    3
 O1 
A    4
 N1 
A    5
 C3 
A    6
 C4 
A    7
 C5 
A    8
 C6 
A    9
 C7 
A   10
 C8 
A   11
 C9 
A   12
 O2 
M  END
>  <ref_pdb>  (196) 
x0554_0A

>  <ref_mols>  (196) 
x0554_0A,x0310_0A

>  <original SMILES>  (196) 
CC(=O)Nc1c(C)cccc1O

>  <rationale>  (196) 
info cluster #0 (rank 20); hbond:S125; hydroph_interaction:A110+V124; 

>  <cluster_rank>  (196) 
20

>  <N_interactions>  (196) 
3

>  <N_interactions_lost>  (196) 
1

>  <∆∆G>  (196) 
-7.920945

>  <comRMSD>  (196) 
0.721419

>  <N_rotatable_bonds>  (196) 
4

>  <N_unconstrained_atoms>  (196) 
1

>  <N_constrained_atoms>  (196) 
13

>  <price>  (196) 
0

$$$$
Z2796535830
     RDKit          3D

 16 16  0  0  0  0  0  0  0  0999 V2000
    9.9340    8.6820   23.0040 C   0  0  0  0  0  0  0  0  0  0  0  0
    9.2840    9.7610   23.8150 C   0  0  0  0  0  0  0  0  0  0  0  0
    8.0930    9.4630   24.4070 N   0  0  0  0  0  0  0  0  0  0  0  0
    7.7680   10.5940   25.0430 N   0  0  0  0  0  0  0  0  0  0  0  0
    6.5510   10.6740   25.8180 C   0  0  0  0  0  0  0  0  0  0  0  0
    8.6890   11.5970   24.8750 C   0  0  0  0  0  0  0  0  0  0  0  0
    8.5060   12.8680   25.4620 C   0  0  0  0  0  0  0  0  0  0  0  0
    9.7030   11.0640   24.0830 C   0  0  0  0  0  0  0  0  0  0  0  0
   10.8700   11.6090   23.6300 C   0  0  0  0  0  0  0  0  0  0  0  0
   10.8910   13.1150   23.6630 C   0  0  0  0  0  0  0  0  0  0  0  0
   11.2050   13.6740   22.3750 N   0  0  0  0  0  0  0  0  0  0  0  0
   10.8610   14.9850   22.1500 C   0  0  0  0  0  0  0  0  0  0  0  0
   10.8340   15.8510   23.0130 O   0  0  0  0  0  0  0  0  0  0  0  0
   10.4840   15.3300   20.7230 C   0  0  0  0  0  0  0  0  0  0  0  0
   10.9120   14.5240   19.7160 N   0  0  0  0  0  0  0  0  0  0  0  0
    9.7010   16.5210   20.6220 O   0  0  0  0  0  0  0  0  0  0  0  0
  1  2  1  0
  2  3  2  0
  3  4  1  0
  4  5  1  0
  4  6  1  0
  6  7  1  0
  6  8  2  0
  8  9  1  0
  9 10  1  0
 10 11  1  0
 11 12  1  0
 12 13  2  0
 12 14  1  0
 14 15  1  0
 14 16  2  0
  8  2  1  0
A    1
 C1 
A    2
 C2 
A    3
 N1 
A    4
 N2 
A    5
 C3 
A    6
 C4 
A    7
 C5 
A    8
 C6 
A    9
 C7 
A   10
 C8 
A   11
 N3 
A   12
 C9 
A   13
 O1 
A   14
 C10
A   15
 N4 
A   16
 O2 
M  END
>  <ref_pdb>  (197) 
x0554_0A

>  <ref_mols>  (197) 
x0310_0A

>  <original SMILES>  (197) 
Cc1nn(C)c(C)c1CCNC(=O)C(N)=O

>  <rationale>  (197) 
info cluster #7 (rank 20); hbond:S87+S125; hydroph_interaction:D109+V124; 

>  <cluster_rank>  (197) 
20

>  <N_interactions>  (197) 
5

>  <N_interactions_lost>  (197) 
2

>  <∆∆G>  (197) 
-8.769479

>  <comRMSD>  (197) 
0.581607

>  <N_rotatable_bonds>  (197) 
6

>  <N_unconstrained_atoms>  (197) 
2

>  <N_constrained_atoms>  (197) 
14

>  <price>  (197) 
0

$$$$
Z5485759543
     RDKit          3D

 15 16  0  0  0  0  0  0  0  0999 V2000
    9.8010    8.8750   23.5830 C   0  0  0  0  0  0  0  0  0  0  0  0
    9.5730   10.2770   23.8030 N   0  0  0  0  0  0  0  0  0  0  0  0
   10.3080   11.1820   23.1340 N   0  0  0  0  0  0  0  0  0  0  0  0
    9.8240   12.3710   23.5470 C   0  0  0  0  0  0  0  0  0  0  0  0
   10.3980   13.6570   22.9870 C   0  0  0  0  0  0  0  0  0  0  0  0
    9.3820   14.2770   22.1110 N   0  0  0  0  0  0  0  0  0  0  0  0
    9.7540   15.3280   20.8520 S   0  0  0  0  0  4  0  0  0  0  0  0
   11.2180   14.5150   20.1450 C   0  0  0  0  0  0  0  0  0  0  0  0
   10.1330   16.7290   21.2350 O   0  0  0  0  0  0  0  0  0  0  0  0
    8.7760   12.1980   24.5030 C   0  0  0  0  0  0  0  0  0  0  0  0
    7.9240   13.0300   25.2580 C   0  0  0  0  0  0  0  0  0  0  0  0
    6.9820   12.4550   26.1230 C   0  0  0  0  0  0  0  0  0  0  0  0
    6.8830   11.0760   26.2460 C   0  0  0  0  0  0  0  0  0  0  0  0
    7.7170   10.2400   25.5140 C   0  0  0  0  0  0  0  0  0  0  0  0
    8.6460   10.8230   24.6490 C   0  0  0  0  0  0  0  0  0  0  0  0
  1  2  1  0
  2  3  1  0
  3  4  2  0
  4  5  1  0
  5  6  1  0
  6  7  1  0
  7  8  1  1
  7  9  2  0
  4 10  1  0
 10 11  2  0
 11 12  1  0
 12 13  2  0
 13 14  1  0
 14 15  2  0
 15  2  1  0
 15 10  1  0
A    1
 C1 
A    2
 N1 
A    3
 N2 
A    4
 C2 
A    5
 C3 
A    6
 N3 
A    7
 S1 
A    8
 C4 
A    9
 O1 
A   10
 C5 
A   11
 C6 
A   12
 C7 
A   13
 C8 
A   14
 C9 
A   15
 C10
M  END
>  <ref_pdb>  (198) 
x0554_0A

>  <ref_mols>  (198) 
x0451_0A,x0566_0A

>  <original SMILES>  (198) 
Cn1nc(CNS(C)=O)c2ccccc21

>  <rationale>  (198) 
info cluster #1 (rank 20); hbond:S87+T126; 

>  <cluster_rank>  (198) 
20

>  <N_interactions>  (198) 
2

>  <N_interactions_lost>  (198) 
1

>  <∆∆G>  (198) 
-8.737377

>  <comRMSD>  (198) 
0.767377

>  <N_rotatable_bonds>  (198) 
5

>  <N_unconstrained_atoms>  (198) 
0

>  <N_constrained_atoms>  (198) 
16

>  <price>  (198) 
0

$$$$
Z3241311221
     RDKit          3D

 18 19  0  0  0  0  0  0  0  0999 V2000
    9.6490   16.5220   20.9670 C   0  0  0  0  0  0  0  0  0  0  0  0
    9.9710   15.0610   21.2710 C   0  0  0  0  0  0  0  0  0  0  0  0
   11.0670   14.6070   20.4010 C   0  0  0  0  0  0  0  0  0  0  0  0
   10.3120   14.8490   22.7540 C   0  0  0  0  0  0  0  0  0  0  0  0
   10.7350   15.7750   23.4470 O   0  0  0  0  0  0  0  0  0  0  0  0
   10.1420   13.5570   23.2540 N   0  0  0  0  0  0  0  0  0  0  0  0
   11.2500   12.7190   23.1900 C   0  0  0  0  0  0  0  0  0  0  0  0
   10.9560   11.2560   23.2970 C   0  0  0  0  0  0  0  0  0  0  0  0
    9.6620   10.9370   23.9940 C   0  0  0  0  0  0  0  0  0  0  0  0
    8.7940   11.9980   24.5990 C   0  0  0  0  0  0  0  0  0  0  0  0
    9.2310   13.3510   24.4420 C   0  0  0  0  0  0  0  0  0  0  0  0
    7.7010   11.2340   25.2170 C   0  0  0  0  0  0  0  0  0  0  0  0
    6.4380   11.5830   26.0720 C   0  0  0  0  0  0  0  0  0  0  0  0
    5.8460   12.6450   26.1810 O   0  0  0  0  0  0  0  0  0  0  0  0
    5.9820   10.5160   26.7930 O   0  0  0  0  0  0  0  0  0  0  0  0
    7.9080    9.9040   24.9400 N   0  0  0  0  0  0  0  0  0  0  0  0
    9.0450    9.8130   24.2290 N   0  0  0  0  0  0  0  0  0  0  0  0
    9.3410    8.5730   23.8980 C   0  0  0  0  0  0  0  0  0  0  0  0
  1  2  1  0
  2  3  1  0
  2  4  1  0
  4  5  2  0
  4  6  1  0
  6  7  1  0
  7  8  1  0
  8  9  1  0
  9 10  2  0
 10 11  1  0
 10 12  1  0
 12 13  1  0
 13 14  2  0
 13 15  1  0
 12 16  2  0
 16 17  1  0
 17 18  1  0
 11  6  1  0
 17  9  1  0
A    1
 C1 
A    2
 C2 
A    3
 C3 
A    4
 C4 
A    5
 O1 
A    6
 N1 
A    7
 C5 
A    8
 C6 
A    9
 C7 
A   10
 C8 
A   11
 C9 
A   12
 C10
A   13
 C11
A   14
 O2 
A   15
 O3 
A   16
 N2 
A   17
 N3 
A   18
 C12
M  END
>  <ref_pdb>  (199) 
x0554_0A

>  <ref_mols>  (199) 
x0556_0A

>  <original SMILES>  (199) 
CC(C)C(=O)N1CCc2c(c(C(=O)O)nn2C)C1

>  <rationale>  (199) 
info cluster #3 (rank 20); hbond:S87+S105; hydroph_interaction:A110+V84; 

>  <cluster_rank>  (199) 
20

>  <N_interactions>  (199) 
4

>  <N_interactions_lost>  (199) 
2

>  <∆∆G>  (199) 
-7.876211

>  <comRMSD>  (199) 
0.770103

>  <N_rotatable_bonds>  (199) 
5

>  <N_unconstrained_atoms>  (199) 
3

>  <N_constrained_atoms>  (199) 
15

>  <price>  (199) 
0

$$$$
PV_006913967883
     RDKit          3D

 12 12  0  0  0  0  0  0  0  0999 V2000
    6.6030   11.9830   26.2010 C   0  0  0  0  0  0  0  0  0  0  0  0
    7.3300   10.8280   25.5710 C   0  0  0  0  0  0  0  0  0  0  0  0
    8.5220   11.0790   24.7260 C   0  0  0  0  0  0  0  0  0  0  0  0
    9.3070   10.1660   23.9980 C   0  0  0  0  0  0  0  0  0  0  0  0
    9.1760    8.7910   23.8640 C   0  0  0  0  0  0  0  0  0  0  0  0
   10.5650   11.0080   23.2170 S   0  0  0  0  0  0  0  0  0  0  0  0
   10.0450   12.5320   23.8280 C   0  0  0  0  0  0  0  0  0  0  0  0
   10.7390   13.7690   23.5040 C   0  0  0  0  0  0  0  0  0  0  0  0
   11.0800   14.6230   24.3000 O   0  0  0  0  0  0  0  0  0  0  0  0
   10.9490   13.8670   22.1550 O   0  0  0  0  0  0  0  0  0  0  0  0
   12.0640   14.6870   21.7960 C   0  0  0  0  0  0  0  0  0  0  0  0
    8.9330   12.3970   24.6260 C   0  0  0  0  0  0  0  0  0  0  0  0
  1  2  2  0
  2  3  1  0
  3  4  2  0
  4  5  1  0
  4  6  1  0
  6  7  1  0
  7  8  1  0
  8  9  2  0
  8 10  1  0
 10 11  1  0
  7 12  2  0
 12  3  1  0
A    1
 C1 
A    2
 C2 
A    3
 C3 
A    4
 C4 
A    5
 C5 
A    6
 S1 
A    7
 C6 
A    8
 C7 
A    9
 O1 
A   10
 O2 
A   11
 C8 
A   12
 C9 
M  END
>  <ref_pdb>  (200) 
x0554_0A

>  <ref_mols>  (200) 
x0451_0A,x0554_0A

>  <original SMILES>  (200) 
C=Cc1cc(C(=O)OC)sc1C

>  <rationale>  (200) 
info cluster #4 (rank 20); saltbridge:H21; 

>  <cluster_rank>  (200) 
20

>  <N_interactions>  (200) 
1

>  <N_interactions_lost>  (200) 
0

>  <∆∆G>  (200) 
-6.217099

>  <comRMSD>  (200) 
0.800459

>  <N_rotatable_bonds>  (200) 
4

>  <N_unconstrained_atoms>  (200) 
0

>  <N_constrained_atoms>  (200) 
14

>  <price>  (200) 
0

$$$$
Z2435155586
     RDKit          3D

 14 14  0  0  0  0  0  0  0  0999 V2000
   11.0490   14.8190   19.8410 C   0  0  0  0  0  0  0  0  0  0  0  0
   10.7460   15.5840   21.1110 C   0  0  1  0  0  0  0  0  0  0  0  0
    9.9510   16.6560   21.0100 N   0  0  0  0  0  0  0  0  0  0  0  0
   10.2770   14.7160   22.2020 C   0  0  0  0  0  0  0  0  0  0  0  0
    9.4150   13.8840   22.0600 O   0  0  0  0  0  0  0  0  0  0  0  0
   10.8490   14.8860   23.4020 N   0  0  0  0  0  0  0  0  0  0  0  0
   10.9030   13.6870   24.2180 C   0  0  0  0  0  0  0  0  0  0  0  0
   10.9660   12.2840   23.5560 C   0  0  0  0  0  0  0  0  0  0  0  0
    9.8250   11.3080   23.9400 C   0  0  0  0  0  0  0  0  0  0  0  0
    8.6970   11.6600   24.8550 C   0  0  0  0  0  0  0  0  0  0  0  0
    7.8320   10.6530   25.0530 N   0  0  0  0  0  0  0  0  0  0  0  0
    6.6430   10.6040   25.8690 C   0  0  0  0  0  0  0  0  0  0  0  0
    8.3010    9.5340   24.2810 N   0  0  0  0  0  0  0  0  0  0  0  0
    9.4840    9.9560   23.6310 C   0  0  0  0  0  0  0  0  0  0  0  0
  2  1  1  6
  2  3  1  0
  2  4  1  0
  4  5  2  0
  4  6  1  0
  6  7  1  0
  7  8  1  0
  8  9  1  0
  9 10  2  0
 10 11  1  0
 11 12  1  0
 11 13  1  0
 13 14  2  0
 14  9  1  0
A    1
 C1 
A    2
 C2 
A    3
 N1 
A    4
 C3 
A    5
 O1 
A    6
 N2 
A    7
 C4 
A    8
 C5 
A    9
 C6 
A   10
 C7 
A   11
 N3 
A   12
 C8 
A   13
 N4 
A   14
 C9 
M  END
>  <ref_pdb>  (201) 
x0554_0A

>  <ref_mols>  (201) 
x0310_0A

>  <original SMILES>  (201) 
C[C@@H](N)C(=O)NCCc1cnn(C)c1

>  <rationale>  (201) 
info cluster #9 (rank 20); hbond:S87; 

>  <cluster_rank>  (201) 
20

>  <N_interactions>  (201) 
3

>  <N_interactions_lost>  (201) 
1

>  <∆∆G>  (201) 
-7.140637

>  <comRMSD>  (201) 
0.745727

>  <N_rotatable_bonds>  (201) 
7

>  <N_unconstrained_atoms>  (201) 
2

>  <N_constrained_atoms>  (201) 
14

>  <price>  (201) 
0

$$$$
