ver_1.2
     RDKit          3D

 14 15  0  0  0  0  0  0  0  0999 V2000
    2.9732   -1.6669   -0.1903 C   0  0  0  0  0  0  0  0  0  0  0  0
    2.1884   -0.4680   -0.0366 N   0  0  0  0  0  0  0  0  0  0  0  0
    2.6654    0.7681    0.1378 C   0  0  0  0  0  0  0  0  0  0  0  0
    1.6508    1.6415    0.2443 N   0  0  0  0  0  0  0  0  0  0  0  0
    0.5120    0.9669    0.1382 C   0  0  0  0  0  0  0  0  0  0  0  0
    0.8503   -0.3648   -0.0391 C   0  0  0  0  0  0  0  0  0  0  0  0
   -0.2003   -1.2601   -0.1743 C   0  0  0  0  0  0  0  0  0  0  0  0
    0.0767   -2.4760   -0.3366 O   0  0  0  0  0  0  0  0  0  0  0  0
   -1.4798   -0.8448   -0.1336 N   0  0  0  0  0  0  0  0  0  0  0  0
   -1.7744    0.4571    0.0402 C   0  0  0  0  0  0  0  0  0  0  0  0
   -2.9569    0.8853    0.0839 O   0  0  0  0  0  0  0  0  0  0  0  0
   -0.7929    1.3668    0.1765 N   0  0  0  0  0  0  0  0  0  0  0  0
   -1.1142    2.7544    0.3616 C   0  0  0  0  0  0  0  0  0  0  0  0
   -2.5981   -1.7594   -0.2721 C   0  0  0  0  0  0  0  0  0  0  0  0
  1  2  1  0
  2  3  1  0
  3  4  2  0
  4  5  1  0
  5  6  2  0
  6  7  1  0
  7  8  2  0
  7  9  1  0
  9 10  1  0
 10 11  2  0
 10 12  1  0
 12 13  1  0
  9 14  1  0
  6  2  1  0
 12  5  1  0
M  END
>  <ref_url>  (1) 
https://github.com/jthorton/EV-A71-2A-elaborations/tree/main/iteration1/Matteo-elaborations/Halo-Quinoline-P1

>  <submitter_name>  (1) 
JTHorton/DJCole

>  <submitter_email>  (1) 
Josh.Horton@newcastle.ac.uk

>  <submitter_institution>  (1) 
Newcastle University (UK)

>  <generation_date>  (1) 
2023-11-24

>  <method>  (1) 
FEGrow-Halo-Quinoline-Elaborations

>  <IC50 (nM)>  (1) 
IC50 (nM)

>  <CNNaffinity>  (1) 
CNNaffinity

>  <rationale>  (1) 
rationale

$$$$
PV_006984519164
     RDKit          3D

 28 32  0  0  0  0  0  0  0  0999 V2000
   10.0325   14.8621   24.4259 O   0  0  0  0  0  0  0  0  0  0  0  0
   10.4635   14.0194   23.6689 C   0  0  0  0  0  0  0  0  0  0  0  0
    9.7456   12.9217   23.2432 N   0  0  0  0  0  0  0  0  0  0  0  0
    9.0185   12.0774   24.0936 C   0  0  0  0  0  0  0  0  0  0  0  0
    8.1024   12.5961   24.9772 C   0  0  0  0  0  0  0  0  0  0  0  0
    7.3194   11.7339   25.7929 C   0  0  0  0  0  0  0  0  0  0  0  0
    7.4837   10.3696   25.7026 C   0  0  0  0  0  0  0  0  0  0  0  0
    8.4254    9.8158   24.7908 C   0  0  0  0  0  0  0  0  0  0  0  0
    8.4786    8.4487   24.7272 N   0  0  0  0  0  0  0  0  0  0  0  0
    9.2407    7.9193   23.8263 C   0  0  0  0  0  0  0  0  0  0  0  0
    9.0412    6.2105   23.5011 Cl  0  0  0  0  0  0  0  0  0  0  0  0
   10.1802    8.6358   23.0349 C   0  0  0  0  0  0  0  0  0  0  0  0
   10.1823   10.0045   23.1251 C   0  0  0  0  0  0  0  0  0  0  0  0
    9.2336   10.6627   23.9760 C   0  0  0  0  0  0  0  0  0  0  0  0
   11.8682   14.0356   23.0457 C   0  0  0  0  0  0  0  0  0  0  0  0
   11.8691   14.5388   21.6399 C   0  0  0  0  0  0  0  0  0  0  0  0
   11.4162   15.8553   21.4072 C   0  0  0  0  0  0  0  0  0  0  0  0
   11.1500   16.2597   20.0890 C   0  0  0  0  0  0  0  0  0  0  0  0
   11.4734   15.4491   18.9556 C   0  0  0  0  0  0  0  0  0  0  0  0
   10.9414   15.9075   17.6056 C   0  0  0  0  0  0  0  0  0  0  0  0
   10.0199   16.8697   17.5127 N   0  0  0  0  0  0  0  0  0  0  0  0
    9.7899   16.8960   16.2171 N   0  0  0  0  0  0  0  0  0  0  0  0
   10.5033   16.0420   15.5196 N   0  0  0  0  0  0  0  0  0  0  0  0
   11.2394   15.4070   16.3705 N   0  0  0  0  0  0  0  0  0  0  0  0
   12.1785   14.2797   19.3011 C   0  0  0  0  0  0  0  0  0  0  0  0
   12.3952   13.7691   20.5106 C   0  0  0  0  0  0  0  0  0  0  0  0
   12.8045   12.9318   23.4707 C   0  0  0  0  0  0  0  0  0  0  0  0
   13.0343   14.3236   23.9683 C   0  0  0  0  0  0  0  0  0  0  0  0
  1  2  2  0
  2  3  1  0
  3  4  1  0
  4  5  2  0
  5  6  1  0
  6  7  2  0
  7  8  1  0
  8  9  2  0
  9 10  1  0
 10 11  1  0
 10 12  2  0
 12 13  1  0
 13 14  2  0
  2 15  1  0
 15 16  1  0
 16 17  2  0
 17 18  1  0
 18 19  2  0
 19 20  1  0
 20 21  2  0
 21 22  1  0
 22 23  1  0
 23 24  2  0
 19 25  1  0
 25 26  2  0
 15 27  1  0
 27 28  1  0
 14  4  1  0
 28 15  1  0
 14  8  1  0
 26 16  1  0
 24 20  1  0
M  END
>  <ref_pdb>  (1) 
x0554_0A

>  <ref_mols>  (1) 
x0554_0A,x0566_0A

>  <original SMILES>  (1) 
O=C(Nc1cccc2nc(Cl)ccc12)C1(c2ccc(-c3nn[nH]n3)cc2)CC1

>  <IC50 (nM)>  (1) 
386.9100404854568

>  <CNNaffinity>  (1) 
6.41239

>  <rationale>  (1) 
-1

$$$$
PV_002291348500
     RDKit          3D

 23 26  0  0  0  0  0  0  0  0999 V2000
   10.7727   14.8929   23.6931 O   0  0  0  0  0  0  0  0  0  0  0  0
   11.3223   14.0636   22.9994 C   0  0  0  0  0  0  0  0  0  0  0  0
   12.5883   14.4184   22.2576 C   0  0  0  0  0  0  0  0  0  0  0  0
   12.2660   14.4726   20.8248 C   0  0  0  0  0  0  0  0  0  0  0  0
   12.4037   13.4241   20.0543 N   0  0  0  0  0  0  0  0  0  0  0  0
   11.9366   13.8844   18.8667 N   0  0  0  0  0  0  0  0  0  0  0  0
   11.5307   15.1621   18.9886 C   0  0  0  0  0  0  0  0  0  0  0  0
   10.9262   16.0036   17.9341 C   0  0  0  0  0  0  0  0  0  0  0  0
   10.8783   15.6223   16.4756 C   0  0  0  0  0  0  0  0  0  0  0  0
    9.6105   15.6482   17.2631 C   0  0  0  0  0  0  0  0  0  0  0  0
   11.7334   15.5610   20.2346 N   0  0  0  0  0  0  0  0  0  0  0  0
   10.8964   12.7667   22.8378 N   0  0  0  0  0  0  0  0  0  0  0  0
    9.9052   12.0909   23.5877 C   0  0  0  0  0  0  0  0  0  0  0  0
    8.9877   12.8009   24.3388 C   0  0  0  0  0  0  0  0  0  0  0  0
    7.9771   12.1511   25.0967 C   0  0  0  0  0  0  0  0  0  0  0  0
    7.8864   10.7806   25.0868 C   0  0  0  0  0  0  0  0  0  0  0  0
    8.7995   10.0160   24.3128 C   0  0  0  0  0  0  0  0  0  0  0  0
    8.5961    8.6635   24.3298 N   0  0  0  0  0  0  0  0  0  0  0  0
    9.3917    7.9265   23.6251 C   0  0  0  0  0  0  0  0  0  0  0  0
    8.9836    6.2314   23.4949 Cl  0  0  0  0  0  0  0  0  0  0  0  0
   10.5328    8.4076   22.9265 C   0  0  0  0  0  0  0  0  0  0  0  0
   10.7451    9.7640   22.8846 C   0  0  0  0  0  0  0  0  0  0  0  0
    9.8464   10.6487   23.5653 C   0  0  0  0  0  0  0  0  0  0  0  0
  1  2  2  0
  2  3  1  0
  3  4  1  0
  4  5  2  0
  5  6  1  0
  6  7  1  0
  7  8  1  0
  8  9  1  0
  9 10  1  0
  7 11  2  0
  2 12  1  0
 12 13  1  0
 13 14  2  0
 14 15  1  0
 15 16  2  0
 16 17  1  0
 17 18  2  0
 18 19  1  0
 19 20  1  0
 19 21  2  0
 21 22  1  0
 22 23  2  0
 11  4  1  0
 23 13  1  0
 10  8  1  0
 23 17  1  0
M  END
>  <ref_pdb>  (2) 
x0554_0A

>  <ref_mols>  (2) 
x0554_0A,x0566_0A

>  <original SMILES>  (2) 
O=C(Cc1n[nH]c(C2CC2)n1)Nc1cccc2nc(Cl)ccc12

>  <IC50 (nM)>  (2) 
407.0239831557619

>  <CNNaffinity>  (2) 
6.39038

>  <rationale>  (2) 
-1

$$$$
PV_002551877632
     RDKit          3D

 27 30  0  0  0  0  0  0  0  0999 V2000
   11.3255   14.4183   24.0678 O   0  0  0  0  0  0  0  0  0  0  0  0
   11.5062   13.7379   23.0798 C   0  0  0  0  0  0  0  0  0  0  0  0
   12.5835   14.1193   22.0088 C   0  0  0  0  0  0  0  0  0  0  0  0
   12.1667   14.3841   20.6169 N   0  0  0  0  0  0  0  0  0  0  0  0
   12.2759   13.5220   19.5267 C   0  0  0  0  0  0  0  0  0  0  0  0
   13.0029   12.5738   19.3837 O   0  0  0  0  0  0  0  0  0  0  0  0
   11.4153   13.9392   18.5629 N   0  0  0  0  0  0  0  0  0  0  0  0
   11.0789   15.3486   18.7473 C   0  0  0  0  0  0  0  0  0  0  0  0
   11.7384   16.2014   17.6358 C   0  0  0  0  0  0  0  0  0  0  0  0
   11.1217   15.8600   16.2627 C   0  0  0  0  0  0  0  0  0  0  0  0
    9.5915   15.9973   16.2595 C   0  0  0  0  0  0  0  0  0  0  0  0
    8.9716   15.1394   17.3695 C   0  0  0  0  0  0  0  0  0  0  0  0
    9.5460   15.5176   18.7373 C   0  0  0  0  0  0  0  0  0  0  0  0
   11.6208   15.5821   20.1832 C   0  0  0  0  0  0  0  0  0  0  0  0
   11.5475   16.5817   20.8560 O   0  0  0  0  0  0  0  0  0  0  0  0
   10.8269   12.5728   22.8314 N   0  0  0  0  0  0  0  0  0  0  0  0
    9.8824   11.9481   23.6713 C   0  0  0  0  0  0  0  0  0  0  0  0
    9.0116   12.6859   24.4456 C   0  0  0  0  0  0  0  0  0  0  0  0
    7.9949   12.0510   25.2125 C   0  0  0  0  0  0  0  0  0  0  0  0
    7.8803   10.6812   25.2014 C   0  0  0  0  0  0  0  0  0  0  0  0
    8.7761    9.8960   24.4261 C   0  0  0  0  0  0  0  0  0  0  0  0
    8.5584    8.5453   24.4387 N   0  0  0  0  0  0  0  0  0  0  0  0
    9.3335    7.8038   23.7175 C   0  0  0  0  0  0  0  0  0  0  0  0
    8.9133    6.1114   23.5770 Cl  0  0  0  0  0  0  0  0  0  0  0  0
   10.4743    8.2713   23.0078 C   0  0  0  0  0  0  0  0  0  0  0  0
   10.7032    9.6244   22.9741 C   0  0  0  0  0  0  0  0  0  0  0  0
    9.8163   10.5118   23.6643 C   0  0  0  0  0  0  0  0  0  0  0  0
  1  2  2  0
  2  3  1  0
  3  4  1  0
  4  5  1  0
  5  6  2  0
  5  7  1  0
  7  8  1  0
  8  9  1  0
  9 10  1  0
 10 11  1  0
 11 12  1  0
 12 13  1  0
  8 14  1  0
 14 15  2  0
  2 16  1  0
 16 17  1  0
 17 18  2  0
 18 19  1  0
 19 20  2  0
 20 21  1  0
 21 22  2  0
 22 23  1  0
 23 24  1  0
 23 25  2  0
 25 26  1  0
 26 27  2  0
 14  4  1  0
 27 17  1  0
 13  8  1  0
 27 21  1  0
M  END
>  <ref_pdb>  (3) 
x0554_0A

>  <ref_mols>  (3) 
x0554_0A,x0566_0A

>  <original SMILES>  (3) 
O=C(CN1C(=O)NC2(CCCCC2)C1=O)Nc1cccc2nc(Cl)ccc12

>  <IC50 (nM)>  (3) 
452.40771247078607

>  <CNNaffinity>  (3) 
6.34447

>  <rationale>  (3) 
-1

$$$$
PV_002304784911
     RDKit          3D

 27 30  0  0  0  0  0  0  0  0999 V2000
   10.9046   16.6358   21.3482 C   0  0  0  0  0  0  0  0  0  0  0  0
   11.4678   15.4519   20.6301 C   0  0  0  0  0  0  0  0  0  0  0  0
   12.2536   14.4563   21.1612 C   0  0  0  0  0  0  0  0  0  0  0  0
   12.6878   14.2612   22.5610 C   0  0  0  0  0  0  0  0  0  0  0  0
   11.4496   13.9353   23.3704 C   0  0  0  0  0  0  0  0  0  0  0  0
   10.9767   14.7349   24.1533 O   0  0  0  0  0  0  0  0  0  0  0  0
   10.9271   12.7023   23.0840 N   0  0  0  0  0  0  0  0  0  0  0  0
    9.8946   12.0330   23.7634 C   0  0  0  0  0  0  0  0  0  0  0  0
    8.9648   12.7494   24.4905 C   0  0  0  0  0  0  0  0  0  0  0  0
    7.9111   12.0970   25.1812 C   0  0  0  0  0  0  0  0  0  0  0  0
    7.8211   10.7280   25.1557 C   0  0  0  0  0  0  0  0  0  0  0  0
    8.7614    9.9644   24.4166 C   0  0  0  0  0  0  0  0  0  0  0  0
    8.5544    8.6124   24.4260 N   0  0  0  0  0  0  0  0  0  0  0  0
    9.3387    7.8788   23.7103 C   0  0  0  0  0  0  0  0  0  0  0  0
    8.9263    6.1824   23.5657 Cl  0  0  0  0  0  0  0  0  0  0  0  0
   10.4737    8.3627   23.0007 C   0  0  0  0  0  0  0  0  0  0  0  0
   10.7075    9.7189   22.9888 C   0  0  0  0  0  0  0  0  0  0  0  0
    9.8216   10.5968   23.6945 C   0  0  0  0  0  0  0  0  0  0  0  0
   12.4742   13.5110   20.2261 N   0  0  0  0  0  0  0  0  0  0  0  0
   11.9171   13.8691   19.1239 N   0  0  0  0  0  0  0  0  0  0  0  0
   11.2854   15.0549   19.3303 N   0  0  0  0  0  0  0  0  0  0  0  0
   10.7184   15.7280   18.1946 C   0  0  0  0  0  0  0  0  0  0  0  0
   11.2480   15.4232   16.9310 C   0  0  0  0  0  0  0  0  0  0  0  0
   10.7821   16.0687   15.7944 C   0  0  0  0  0  0  0  0  0  0  0  0
    9.7501   17.0086   15.8818 C   0  0  0  0  0  0  0  0  0  0  0  0
    9.2186   17.3146   17.1359 C   0  0  0  0  0  0  0  0  0  0  0  0
    9.6854   16.6735   18.2901 C   0  0  0  0  0  0  0  0  0  0  0  0
  1  2  1  0
  2  3  2  0
  3  4  1  0
  4  5  1  0
  5  6  2  0
  5  7  1  0
  7  8  1  0
  8  9  2  0
  9 10  1  0
 10 11  2  0
 11 12  1  0
 12 13  2  0
 13 14  1  0
 14 15  1  0
 14 16  2  0
 16 17  1  0
 17 18  2  0
  3 19  1  0
 19 20  2  0
 20 21  1  0
 21 22  1  0
 22 23  2  0
 23 24  1  0
 24 25  2  0
 25 26  1  0
 26 27  2  0
 21  2  1  0
 27 22  1  0
 18  8  1  0
 18 12  1  0
M  END
>  <ref_pdb>  (4) 
x0554_0A

>  <ref_mols>  (4) 
x0554_0A,x0566_0A

>  <original SMILES>  (4) 
Cc1c(CC(=O)Nc2cccc3nc(Cl)ccc23)nnn1-c1ccccc1

>  <IC50 (nM)>  (4) 
458.97602458680245

>  <CNNaffinity>  (4) 
6.33821

>  <rationale>  (4) 
-1

$$$$
Z3143281284
     RDKit          3D

 27 30  0  0  0  0  0  0  0  0999 V2000
    8.7302   17.3438   16.0769 C   0  0  0  0  0  0  0  0  0  0  0  0
    8.5962   16.1852   16.8733 O   0  0  0  0  0  0  0  0  0  0  0  0
    9.3253   16.0193   18.0846 C   0  0  2  0  0  0  0  0  0  0  0  0
    9.4548   17.2896   18.9686 C   0  0  0  0  0  0  0  0  0  0  0  0
   10.8531   17.6952   18.8176 N   0  0  0  0  0  0  0  0  0  0  0  0
   11.4164   16.9967   17.6657 C   0  0  0  0  0  0  0  0  0  0  0  0
   10.7921   15.6136   17.8435 C   0  0  1  0  0  0  0  0  0  0  0  0
   11.4103   14.9134   19.0057 C   0  0  0  0  0  0  0  0  0  0  0  0
   11.5475   15.3319   20.3073 C   0  0  0  0  0  0  0  0  0  0  0  0
   12.2559   14.3477   20.8982 N   0  0  0  0  0  0  0  0  0  0  0  0
   12.6186   14.2253   22.2893 C   0  0  0  0  0  0  0  0  0  0  0  0
   11.4175   13.8940   23.1680 C   0  0  0  0  0  0  0  0  0  0  0  0
   11.0396   14.6585   24.0318 O   0  0  0  0  0  0  0  0  0  0  0  0
   10.8483   12.6831   22.8830 N   0  0  0  0  0  0  0  0  0  0  0  0
    9.8640   12.0190   23.6344 C   0  0  0  0  0  0  0  0  0  0  0  0
    8.9565   12.7364   24.3877 C   0  0  0  0  0  0  0  0  0  0  0  0
    7.9534   12.0823   25.1482 C   0  0  0  0  0  0  0  0  0  0  0  0
    7.8716   10.7108   25.1411 C   0  0  0  0  0  0  0  0  0  0  0  0
    8.7823    9.9459   24.3651 C   0  0  0  0  0  0  0  0  0  0  0  0
    8.5768    8.5934   24.3792 N   0  0  0  0  0  0  0  0  0  0  0  0
    9.3642    7.8606   23.6632 C   0  0  0  0  0  0  0  0  0  0  0  0
    8.9537    6.1666   23.5198 Cl  0  0  0  0  0  0  0  0  0  0  0  0
   10.5013    8.3434   22.9575 C   0  0  0  0  0  0  0  0  0  0  0  0
   10.7177    9.7001   22.9190 C   0  0  0  0  0  0  0  0  0  0  0  0
    9.8175   10.5801   23.6071 C   0  0  0  0  0  0  0  0  0  0  0  0
   12.5577   13.3936   20.0287 N   0  0  0  0  0  0  0  0  0  0  0  0
   12.0555   13.7221   18.8806 N   0  0  0  0  0  0  0  0  0  0  0  0
  1  2  1  0
  3  2  1  6
  3  4  1  0
  4  5  1  0
  5  6  1  0
  6  7  1  0
  7  8  1  1
  8  9  2  0
  9 10  1  0
 10 11  1  0
 11 12  1  0
 12 13  2  0
 12 14  1  0
 14 15  1  0
 15 16  2  0
 16 17  1  0
 17 18  2  0
 18 19  1  0
 19 20  2  0
 20 21  1  0
 21 22  1  0
 21 23  2  0
 23 24  1  0
 24 25  2  0
 10 26  1  0
 26 27  2  0
  7  3  1  0
 27  8  1  0
 25 15  1  0
 25 19  1  0
M  END
>  <ref_pdb>  (5) 
x0554_0A

>  <ref_mols>  (5) 
x0554_0A,x0566_0A

>  <original SMILES>  (5) 
CO[C@@H]1CNC[C@H]1c1cn(CC(=O)Nc2cccc3nc(Cl)ccc23)nn1

>  <IC50 (nM)>  (5) 
461.200744829841

>  <CNNaffinity>  (5) 
6.33611

>  <rationale>  (5) 
-1

$$$$
PV_007152355318
     RDKit          3D

 26 29  0  0  0  0  0  0  0  0999 V2000
   10.6500   14.8866   23.0081 O   0  0  0  0  0  0  0  0  0  0  0  0
   11.3021   13.9049   22.6987 C   0  0  0  0  0  0  0  0  0  0  0  0
   12.6581   14.0493   22.0466 C   0  0  0  0  0  0  0  0  0  0  0  0
   12.3664   14.4266   20.6494 C   0  0  0  0  0  0  0  0  0  0  0  0
   12.7590   13.8364   19.5640 N   0  0  0  0  0  0  0  0  0  0  0  0
   12.1729   14.5003   18.5140 N   0  0  0  0  0  0  0  0  0  0  0  0
   11.4422   15.4645   19.0092 C   0  0  0  0  0  0  0  0  0  0  0  0
   10.6291   16.4101   18.2050 C   0  0  0  0  0  0  0  0  0  0  0  0
   10.2712   17.6941   18.6474 C   0  0  0  0  0  0  0  0  0  0  0  0
    9.5631   18.5341   17.7797 C   0  0  0  0  0  0  0  0  0  0  0  0
    9.1807   18.1781   16.5450 N   0  0  0  0  0  0  0  0  0  0  0  0
    9.4949   16.9386   16.1440 C   0  0  0  0  0  0  0  0  0  0  0  0
   10.2096   16.0315   16.9190 C   0  0  0  0  0  0  0  0  0  0  0  0
   11.5363   15.4651   20.3733 N   0  0  0  0  0  0  0  0  0  0  0  0
   10.8692   12.6200   22.7655 N   0  0  0  0  0  0  0  0  0  0  0  0
    9.8859   12.0376   23.5706 C   0  0  0  0  0  0  0  0  0  0  0  0
    9.0249   12.7991   24.3294 C   0  0  0  0  0  0  0  0  0  0  0  0
    8.0265   12.1766   25.1256 C   0  0  0  0  0  0  0  0  0  0  0  0
    7.9057   10.8077   25.1422 C   0  0  0  0  0  0  0  0  0  0  0  0
    8.7834   10.0050   24.3643 C   0  0  0  0  0  0  0  0  0  0  0  0
    8.5563    8.6553   24.4015 N   0  0  0  0  0  0  0  0  0  0  0  0
    9.3259    7.8955   23.6941 C   0  0  0  0  0  0  0  0  0  0  0  0
    8.9008    6.2024   23.5768 Cl  0  0  0  0  0  0  0  0  0  0  0  0
   10.4669    8.3431   22.9725 C   0  0  0  0  0  0  0  0  0  0  0  0
   10.7021    9.6928   22.9132 C   0  0  0  0  0  0  0  0  0  0  0  0
    9.8206   10.6005   23.5871 C   0  0  0  0  0  0  0  0  0  0  0  0
  1  2  2  0
  2  3  1  0
  3  4  1  0
  4  5  2  0
  5  6  1  0
  6  7  2  0
  7  8  1  0
  8  9  2  0
  9 10  1  0
 10 11  2  0
 11 12  1  0
 12 13  2  0
  7 14  1  0
  2 15  1  0
 15 16  1  0
 16 17  2  0
 17 18  1  0
 18 19  2  0
 19 20  1  0
 20 21  2  0
 21 22  1  0
 22 23  1  0
 22 24  2  0
 24 25  1  0
 25 26  2  0
 14  4  1  0
 26 16  1  0
 13  8  1  0
 26 20  1  0
M  END
>  <ref_pdb>  (6) 
x0554_0A

>  <ref_mols>  (6) 
x0554_0A,x0566_0A

>  <original SMILES>  (6) 
O=C(Cc1nnc(-c2ccncc2)[nH]1)Nc1cccc2nc(Cl)ccc12

>  <IC50 (nM)>  (6) 
468.2200424459133

>  <CNNaffinity>  (6) 
6.32955

>  <rationale>  (6) 
-1

$$$$
PV_002294217630
     RDKit          3D

 27 30  0  0  0  0  0  0  0  0999 V2000
   11.0148   16.4330   21.3981 C   0  0  0  0  0  0  0  0  0  0  0  0
   11.5800   15.2843   20.6967 N   0  0  0  0  0  0  0  0  0  0  0  0
   12.3754   14.3292   21.2594 C   0  0  0  0  0  0  0  0  0  0  0  0
   12.7061   14.2537   22.6972 C   0  0  0  0  0  0  0  0  0  0  0  0
   11.4134   13.9704   23.4273 C   0  0  0  0  0  0  0  0  0  0  0  0
   10.8953   14.7983   24.1490 O   0  0  0  0  0  0  0  0  0  0  0  0
   10.9024   12.7319   23.1479 N   0  0  0  0  0  0  0  0  0  0  0  0
    9.8562   12.0580   23.8012 C   0  0  0  0  0  0  0  0  0  0  0  0
    8.9047   12.7612   24.5115 C   0  0  0  0  0  0  0  0  0  0  0  0
    7.8494   12.0925   25.1882 C   0  0  0  0  0  0  0  0  0  0  0  0
    7.7812   10.7204   25.1632 C   0  0  0  0  0  0  0  0  0  0  0  0
    8.7377    9.9700   24.4306 C   0  0  0  0  0  0  0  0  0  0  0  0
    8.5463    8.6160   24.4263 N   0  0  0  0  0  0  0  0  0  0  0  0
    9.3349    7.8975   23.6987 C   0  0  0  0  0  0  0  0  0  0  0  0
    8.9404    6.1988   23.5412 Cl  0  0  0  0  0  0  0  0  0  0  0  0
   10.4624    8.4017   22.9921 C   0  0  0  0  0  0  0  0  0  0  0  0
   10.6822    9.7583   22.9964 C   0  0  0  0  0  0  0  0  0  0  0  0
    9.7937   10.6209   23.7175 C   0  0  0  0  0  0  0  0  0  0  0  0
   12.6867   13.4126   20.3976 N   0  0  0  0  0  0  0  0  0  0  0  0
   12.1436   13.7768   19.2017 N   0  0  0  0  0  0  0  0  0  0  0  0
   11.4758   14.8936   19.3764 C   0  0  0  0  0  0  0  0  0  0  0  0
   10.8110   15.6120   18.2619 C   0  0  0  0  0  0  0  0  0  0  0  0
   11.2634   15.3297   16.9594 C   0  0  0  0  0  0  0  0  0  0  0  0
   10.7609   16.0236   15.8655 C   0  0  0  0  0  0  0  0  0  0  0  0
    9.7635   16.9892   16.0316 C   0  0  0  0  0  0  0  0  0  0  0  0
    9.2798   17.2550   17.3152 C   0  0  0  0  0  0  0  0  0  0  0  0
    9.7845   16.5605   18.4183 C   0  0  0  0  0  0  0  0  0  0  0  0
  1  2  1  0
  2  3  1  0
  3  4  1  0
  4  5  1  0
  5  6  2  0
  5  7  1  0
  7  8  1  0
  8  9  2  0
  9 10  1  0
 10 11  2  0
 11 12  1  0
 12 13  2  0
 13 14  1  0
 14 15  1  0
 14 16  2  0
 16 17  1  0
 17 18  2  0
  3 19  2  0
 19 20  1  0
 20 21  2  0
 21 22  1  0
 22 23  2  0
 23 24  1  0
 24 25  2  0
 25 26  1  0
 26 27  2  0
 21  2  1  0
 27 22  1  0
 18  8  1  0
 18 12  1  0
M  END
>  <ref_pdb>  (7) 
x0554_0A

>  <ref_mols>  (7) 
x0554_0A,x0566_0A

>  <original SMILES>  (7) 
Cn1c(CC(=O)Nc2cccc3nc(Cl)ccc23)nnc1-c1ccccc1

>  <IC50 (nM)>  (7) 
482.9920696097945

>  <CNNaffinity>  (7) 
6.31606

>  <rationale>  (7) 
-1

$$$$
PV_007011194285
     RDKit          3D

 27 30  0  0  0  0  0  0  0  0999 V2000
   10.3438   14.6741   22.9815 O   0  0  0  0  0  0  0  0  0  0  0  0
   10.9265   13.7463   22.4553 C   0  0  0  0  0  0  0  0  0  0  0  0
   10.4868   12.4562   22.5158 N   0  0  0  0  0  0  0  0  0  0  0  0
    9.6659   11.8764   23.4925 C   0  0  0  0  0  0  0  0  0  0  0  0
    8.8514   12.6265   24.3185 C   0  0  0  0  0  0  0  0  0  0  0  0
    7.9543   11.9901   25.2191 C   0  0  0  0  0  0  0  0  0  0  0  0
    7.8798   10.6173   25.2676 C   0  0  0  0  0  0  0  0  0  0  0  0
    8.7252    9.8296   24.4425 C   0  0  0  0  0  0  0  0  0  0  0  0
    8.5445    8.4742   24.5060 N   0  0  0  0  0  0  0  0  0  0  0  0
    9.3039    7.7325   23.7684 C   0  0  0  0  0  0  0  0  0  0  0  0
    8.8881    6.0378   23.6458 Cl  0  0  0  0  0  0  0  0  0  0  0  0
   10.4249    8.2024   23.0273 C   0  0  0  0  0  0  0  0  0  0  0  0
   10.6137    9.5576   22.9416 C   0  0  0  0  0  0  0  0  0  0  0  0
    9.6928   10.4417   23.5939 C   0  0  0  0  0  0  0  0  0  0  0  0
   12.2669   13.9250   21.7349 C   0  0  2  0  0  0  0  0  0  0  0  0
   13.2190   14.7209   22.6844 C   0  0  0  0  0  0  0  0  0  0  0  0
   13.6490   13.9519   23.9084 C   0  0  0  0  0  0  0  0  0  0  0  0
   14.8934   13.7276   24.3148 N   0  0  0  0  0  0  0  0  0  0  0  0
   14.6869   13.0532   25.4299 N   0  0  0  0  0  0  0  0  0  0  0  0
   13.4221   12.8425   25.7221 N   0  0  0  0  0  0  0  0  0  0  0  0
   12.7458   13.3939   24.7594 N   0  0  0  0  0  0  0  0  0  0  0  0
   11.9405   14.5902   20.4188 C   0  0  0  0  0  0  0  0  0  0  0  0
   12.2643   13.9955   19.1877 C   0  0  0  0  0  0  0  0  0  0  0  0
   11.9621   14.6713   17.9996 C   0  0  0  0  0  0  0  0  0  0  0  0
   11.3416   15.9193   18.0872 C   0  0  0  0  0  0  0  0  0  0  0  0
   11.0629   16.4284   19.3580 C   0  0  0  0  0  0  0  0  0  0  0  0
   11.3464   15.7852   20.4966 N   0  0  0  0  0  0  0  0  0  0  0  0
  1  2  2  0
  2  3  1  0
  3  4  1  0
  4  5  2  0
  5  6  1  0
  6  7  2  0
  7  8  1  0
  8  9  2  0
  9 10  1  0
 10 11  1  0
 10 12  2  0
 12 13  1  0
 13 14  2  0
  2 15  1  0
 15 16  1  1
 16 17  1  0
 17 18  2  0
 18 19  1  0
 19 20  1  0
 20 21  2  0
 15 22  1  0
 22 23  2  0
 23 24  1  0
 24 25  2  0
 25 26  1  0
 26 27  2  0
 14  4  1  0
 21 17  1  0
 27 22  1  0
 14  8  1  0
M  END
>  <ref_pdb>  (8) 
x0554_0A

>  <ref_mols>  (8) 
x0554_0A,x0566_0A

>  <original SMILES>  (8) 
O=C(Nc1cccc2nc(Cl)ccc12)[C@H](Cc1nn[nH]n1)c1ccccn1

>  <IC50 (nM)>  (8) 
515.4066289862799

>  <CNNaffinity>  (8) 
6.28785

>  <rationale>  (8) 
-1

$$$$
Z5515280729
     RDKit          3D

 24 27  0  0  0  0  0  0  0  0999 V2000
   11.0927   14.5765   24.2033 O   0  0  0  0  0  0  0  0  0  0  0  0
   11.4464   13.8763   23.2740 C   0  0  0  0  0  0  0  0  0  0  0  0
   12.6174   14.2849   22.3814 C   0  0  0  0  0  0  0  0  0  0  0  0
   12.1827   14.5752   21.0314 N   0  0  0  0  0  0  0  0  0  0  0  0
   11.6335   15.6968   20.5009 C   0  0  0  0  0  0  0  0  0  0  0  0
   11.2747   15.3271   19.2274 C   0  0  0  0  0  0  0  0  0  0  0  0
   10.7145   16.1063   18.0960 C   0  0  0  0  0  0  0  0  0  0  0  0
    9.4021   15.6077   17.4228 C   0  0  0  0  0  0  0  0  0  0  0  0
   10.0796   15.7197   16.0412 C   0  0  0  0  0  0  0  0  0  0  0  0
   11.4399   15.8757   16.7422 C   0  0  0  0  0  0  0  0  0  0  0  0
   11.5848   14.0096   19.0755 N   0  0  0  0  0  0  0  0  0  0  0  0
   12.1324   13.5762   20.1620 N   0  0  0  0  0  0  0  0  0  0  0  0
   10.8633   12.6836   22.9338 N   0  0  0  0  0  0  0  0  0  0  0  0
    9.8646   12.0132   23.6662 C   0  0  0  0  0  0  0  0  0  0  0  0
    8.9454   12.7286   24.4089 C   0  0  0  0  0  0  0  0  0  0  0  0
    7.9354   12.0748   25.1609 C   0  0  0  0  0  0  0  0  0  0  0  0
    7.8552   10.7043   25.1495 C   0  0  0  0  0  0  0  0  0  0  0  0
    8.7733    9.9395   24.3802 C   0  0  0  0  0  0  0  0  0  0  0  0
    8.5702    8.5868   24.3910 N   0  0  0  0  0  0  0  0  0  0  0  0
    9.3556    7.8550   23.6726 C   0  0  0  0  0  0  0  0  0  0  0  0
    8.9480    6.1597   23.5371 Cl  0  0  0  0  0  0  0  0  0  0  0  0
   10.4918    8.3384   22.9648 C   0  0  0  0  0  0  0  0  0  0  0  0
   10.7071    9.6957   22.9318 C   0  0  0  0  0  0  0  0  0  0  0  0
    9.8127   10.5749   23.6284 C   0  0  0  0  0  0  0  0  0  0  0  0
  1  2  2  0
  2  3  1  0
  3  4  1  0
  4  5  1  0
  5  6  2  0
  6  7  1  0
  7  8  1  0
  8  9  1  0
  9 10  1  0
  6 11  1  0
 11 12  2  0
  2 13  1  0
 13 14  1  0
 14 15  2  0
 15 16  1  0
 16 17  2  0
 17 18  1  0
 18 19  2  0
 19 20  1  0
 20 21  1  0
 20 22  2  0
 22 23  1  0
 23 24  2  0
 12  4  1  0
 24 14  1  0
 10  7  1  0
 24 18  1  0
M  END
>  <ref_pdb>  (9) 
x0554_0A

>  <ref_mols>  (9) 
x0554_0A,x0566_0A

>  <original SMILES>  (9) 
O=C(Cn1cc(C2CCC2)nn1)Nc1cccc2nc(Cl)ccc12

>  <IC50 (nM)>  (9) 
531.936755475034

>  <CNNaffinity>  (9) 
6.27414

>  <rationale>  (9) 
-1

$$$$
Z4664439503
     RDKit          3D

 25 27  0  0  0  0  0  0  0  0999 V2000
   12.8318   12.6399   21.8884 C   0  0  0  0  0  0  0  0  0  0  0  0
   12.0084   13.9665   21.8437 C   0  0  0  0  0  0  0  0  0  0  0  0
   12.9556   15.1067   22.2949 C   0  0  0  0  0  0  0  0  0  0  0  0
   10.8231   13.8581   22.8651 C   0  0  0  0  0  0  0  0  0  0  0  0
   10.5707   14.6974   23.7085 O   0  0  0  0  0  0  0  0  0  0  0  0
   10.0493   12.7316   22.6941 N   0  0  0  0  0  0  0  0  0  0  0  0
    9.3319   12.0448   23.6819 C   0  0  0  0  0  0  0  0  0  0  0  0
    8.5241   12.7152   24.5700 C   0  0  0  0  0  0  0  0  0  0  0  0
    7.7187   11.9976   25.4946 C   0  0  0  0  0  0  0  0  0  0  0  0
    7.7533   10.6232   25.5168 C   0  0  0  0  0  0  0  0  0  0  0  0
    8.5915    9.9125   24.6173 C   0  0  0  0  0  0  0  0  0  0  0  0
    8.5119    8.5462   24.6731 N   0  0  0  0  0  0  0  0  0  0  0  0
    9.2139    7.8711   23.8250 C   0  0  0  0  0  0  0  0  0  0  0  0
    8.8882    6.1575   23.6819 Cl  0  0  0  0  0  0  0  0  0  0  0  0
   10.1837    8.4300   22.9479 C   0  0  0  0  0  0  0  0  0  0  0  0
   10.2702    9.7960   22.8684 C   0  0  0  0  0  0  0  0  0  0  0  0
    9.4239   10.6097   23.6906 C   0  0  0  0  0  0  0  0  0  0  0  0
   11.4074   14.2924   20.4063 C   0  0  0  0  0  0  0  0  0  0  0  0
   12.4644   14.1877   19.2688 C   0  0  0  0  0  0  0  0  0  0  0  0
   12.1055   14.8778   17.9238 C   0  0  0  0  0  0  0  0  0  0  0  0
   10.3888   15.2958   17.6149 S   0  0  0  0  0  6  0  0  0  0  0  0
   10.4007   16.4359   16.7033 O   0  0  0  0  0  0  0  0  0  0  0  0
    9.6692   14.0679   17.2796 O   0  0  0  0  0  0  0  0  0  0  0  0
    9.7695   15.8650   19.2035 C   0  0  0  0  0  0  0  0  0  0  0  0
   10.7231   15.6803   20.3946 C   0  0  0  0  0  0  0  0  0  0  0  0
  1  2  1  0
  2  3  1  0
  2  4  1  0
  4  5  2  0
  4  6  1  0
  6  7  1  0
  7  8  2  0
  8  9  1  0
  9 10  2  0
 10 11  1  0
 11 12  2  0
 12 13  1  0
 13 14  1  0
 13 15  2  0
 15 16  1  0
 16 17  2  0
  2 18  1  0
 18 19  1  0
 19 20  1  0
 20 21  1  0
 21 22  2  0
 21 23  2  0
 21 24  1  0
 24 25  1  0
 17  7  1  0
 25 18  1  0
 17 11  1  0
M  END
>  <ref_pdb>  (10) 
x0554_0A

>  <ref_mols>  (10) 
x0554_0A,x0566_0A

>  <original SMILES>  (10) 
CC(C)(C(=O)Nc1cccc2nc(Cl)ccc12)C1CCS(=O)(=O)CC1

>  <IC50 (nM)>  (10) 
536.6485991131643

>  <CNNaffinity>  (10) 
6.27031

>  <rationale>  (10) 
-1

$$$$
Z4666930424
     RDKit          3D

 24 26  0  0  0  0  0  0  0  0999 V2000
   11.4277   16.5194   17.3242 C   0  0  0  0  0  0  0  0  0  0  0  0
   10.4676   15.7189   18.2429 C   0  0  0  0  0  0  0  0  0  0  0  0
    9.5489   16.7187   18.9736 C   0  0  0  0  0  0  0  0  0  0  0  0
    9.6425   14.8018   17.3046 C   0  0  0  0  0  0  0  0  0  0  0  0
   11.2702   14.9119   19.2601 C   0  0  0  0  0  0  0  0  0  0  0  0
   11.3758   15.1591   20.5673 N   0  0  0  0  0  0  0  0  0  0  0  0
   12.2374   14.2356   20.9484 N   0  0  0  0  0  0  0  0  0  0  0  0
   12.6785   14.1023   22.3138 C   0  0  0  0  0  0  0  0  0  0  0  0
   11.5254   13.7859   23.2445 C   0  0  0  0  0  0  0  0  0  0  0  0
   11.2891   14.4643   24.2204 O   0  0  0  0  0  0  0  0  0  0  0  0
   10.8335   12.6597   22.8998 N   0  0  0  0  0  0  0  0  0  0  0  0
    9.8505   12.0241   23.6765 C   0  0  0  0  0  0  0  0  0  0  0  0
    8.9601   12.7591   24.4282 C   0  0  0  0  0  0  0  0  0  0  0  0
    7.9149   12.1242   25.1509 C   0  0  0  0  0  0  0  0  0  0  0  0
    7.7945   10.7549   25.1251 C   0  0  0  0  0  0  0  0  0  0  0  0
    8.7208    9.9702   24.3861 C   0  0  0  0  0  0  0  0  0  0  0  0
    8.5182    8.6178   24.4045 N   0  0  0  0  0  0  0  0  0  0  0  0
    9.3212    7.8802   23.7091 C   0  0  0  0  0  0  0  0  0  0  0  0
    8.9254    6.1835   23.5661 Cl  0  0  0  0  0  0  0  0  0  0  0  0
   10.4716    8.3553   23.0173 C   0  0  0  0  0  0  0  0  0  0  0  0
   10.6951    9.7091   22.9929 C   0  0  0  0  0  0  0  0  0  0  0  0
    9.7829   10.5906   23.6564 C   0  0  0  0  0  0  0  0  0  0  0  0
   12.6519   13.4577   19.9800 N   0  0  0  0  0  0  0  0  0  0  0  0
   12.0482   13.8627   18.8996 N   0  0  0  0  0  0  0  0  0  0  0  0
  1  2  1  0
  2  3  1  0
  2  4  1  0
  2  5  1  0
  5  6  2  0
  6  7  1  0
  7  8  1  0
  8  9  1  0
  9 10  2  0
  9 11  1  0
 11 12  1  0
 12 13  2  0
 13 14  1  0
 14 15  2  0
 15 16  1  0
 16 17  2  0
 17 18  1  0
 18 19  1  0
 18 20  2  0
 20 21  1  0
 21 22  2  0
  7 23  1  0
 23 24  2  0
 24  5  1  0
 22 12  1  0
 22 16  1  0
M  END
>  <ref_pdb>  (11) 
x0554_0A

>  <ref_mols>  (11) 
x0554_0A,x0566_0A

>  <original SMILES>  (11) 
CC(C)(C)c1nnn(CC(=O)Nc2cccc3nc(Cl)ccc23)n1

>  <IC50 (nM)>  (11) 
543.3003690013122

>  <CNNaffinity>  (11) 
6.26496

>  <rationale>  (11) 
-1

$$$$
PV_007119697661
     RDKit          3D

 26 28  0  0  0  0  0  0  0  0999 V2000
    9.7753   13.6406   17.5385 C   0  0  0  0  0  0  0  0  0  0  0  0
   10.5334   14.1470   18.7372 C   0  0  0  0  0  0  0  0  0  0  0  0
   10.3953   13.6686   19.9660 N   0  0  0  0  0  0  0  0  0  0  0  0
   11.3466   14.2931   20.7080 N   0  0  0  0  0  0  0  0  0  0  0  0
   11.7224   13.8289   22.0982 C   0  0  2  0  0  0  0  0  0  0  0  0
   12.6163   12.7504   22.1476 C   0  0  0  0  0  0  0  0  0  0  0  0
   10.3776   13.7321   22.9563 C   0  0  0  0  0  0  0  0  0  0  0  0
   10.0852   14.6035   23.7461 O   0  0  0  0  0  0  0  0  0  0  0  0
    9.6517   12.5982   22.7344 N   0  0  0  0  0  0  0  0  0  0  0  0
    9.0487   11.8486   23.7568 C   0  0  0  0  0  0  0  0  0  0  0  0
    8.2091   12.4488   24.6626 C   0  0  0  0  0  0  0  0  0  0  0  0
    7.5025   11.6635   25.6165 C   0  0  0  0  0  0  0  0  0  0  0  0
    7.6561   10.2941   25.6208 C   0  0  0  0  0  0  0  0  0  0  0  0
    8.5234    9.6628   24.6888 C   0  0  0  0  0  0  0  0  0  0  0  0
    8.5313    8.2943   24.6859 N   0  0  0  0  0  0  0  0  0  0  0  0
    9.2895    7.7094   23.8173 C   0  0  0  0  0  0  0  0  0  0  0  0
    9.0049    6.0048   23.5552 Cl  0  0  0  0  0  0  0  0  0  0  0  0
   10.2859    8.3624   23.0326 C   0  0  0  0  0  0  0  0  0  0  0  0
   10.2971    9.7357   23.0272 C   0  0  0  0  0  0  0  0  0  0  0  0
    9.3122   10.4418   23.7934 C   0  0  0  0  0  0  0  0  0  0  0  0
   12.1134   15.1390   19.9860 C   0  0  0  0  0  0  0  0  0  0  0  0
   13.4005   15.7234   20.4776 C   0  0  0  0  0  0  0  0  0  0  0  0
   11.5473   15.1205   18.7209 C   0  0  0  0  0  0  0  0  0  0  0  0
   11.8722   15.9128   17.5667 N   0  0  0  0  0  4  0  0  0  0  0  0
   13.0414   16.2026   17.3722 O   0  0  0  0  0  0  0  0  0  0  0  0
   10.9514   16.2434   16.8331 O   0  0  0  0  0  1  0  0  0  0  0  0
  1  2  1  0
  2  3  2  0
  3  4  1  0
  4  5  1  0
  5  6  1  6
  5  7  1  0
  7  8  2  0
  7  9  1  0
  9 10  1  0
 10 11  2  0
 11 12  1  0
 12 13  2  0
 13 14  1  0
 14 15  2  0
 15 16  1  0
 16 17  1  0
 16 18  2  0
 18 19  1  0
 19 20  2  0
  4 21  1  0
 21 22  1  0
 21 23  2  0
 23 24  1  0
 24 25  2  0
 24 26  1  0
 23  2  1  0
 20 10  1  0
 20 14  1  0
M  CHG  2  24   1  26  -1
M  END
>  <ref_pdb>  (12) 
x0554_0A

>  <ref_mols>  (12) 
x0554_0A,x0566_0A

>  <original SMILES>  (12) 
Cc1nn([C@H](C)C(=O)Nc2cccc3nc(Cl)ccc23)c(C)c1[N+](=O)[O-]

>  <IC50 (nM)>  (12) 
556.6856161633873

>  <CNNaffinity>  (12) 
6.25439

>  <rationale>  (12) 
-1

$$$$
PV_002470035737
     RDKit          3D

 25 27  0  0  0  0  0  0  0  0999 V2000
   12.5371   16.1809   22.0702 C   0  0  0  0  0  0  0  0  0  0  0  0
   12.0027   14.7420   22.0709 C   0  0  1  0  0  0  0  0  0  0  0  0
   10.8287   14.3988   23.0273 C   0  0  0  0  0  0  0  0  0  0  0  0
   10.3450   15.2161   23.7894 O   0  0  0  0  0  0  0  0  0  0  0  0
   10.4315   13.0915   22.9312 N   0  0  0  0  0  0  0  0  0  0  0  0
    9.5822   12.3620   23.7786 C   0  0  0  0  0  0  0  0  0  0  0  0
    8.6883   12.9940   24.6192 C   0  0  0  0  0  0  0  0  0  0  0  0
    7.7515   12.2440   25.3805 C   0  0  0  0  0  0  0  0  0  0  0  0
    7.7406   10.8725   25.3038 C   0  0  0  0  0  0  0  0  0  0  0  0
    8.6672   10.1924   24.4697 C   0  0  0  0  0  0  0  0  0  0  0  0
    8.5410    8.8290   24.4149 N   0  0  0  0  0  0  0  0  0  0  0  0
    9.3538    8.1870   23.6403 C   0  0  0  0  0  0  0  0  0  0  0  0
    9.0587    6.4801   23.4112 Cl  0  0  0  0  0  0  0  0  0  0  0  0
   10.4360    8.7735   22.9263 C   0  0  0  0  0  0  0  0  0  0  0  0
   10.5766   10.1383   22.9713 C   0  0  0  0  0  0  0  0  0  0  0  0
    9.6401   10.9241   23.7180 C   0  0  0  0  0  0  0  0  0  0  0  0
   11.8052   14.2403   20.6935 N   0  0  0  0  0  0  0  0  0  0  0  0
   12.7042   13.3153   20.3125 N   0  0  0  0  0  0  0  0  0  0  0  0
   12.6381   13.2022   19.0461 N   0  0  0  0  0  0  0  0  0  0  0  0
   11.7411   14.0639   18.5388 N   0  0  0  0  0  0  0  0  0  0  0  0
   11.2036   14.7108   19.5512 C   0  0  0  0  0  0  0  0  0  0  0  0
   10.0616   15.7214   19.3874 C   0  0  0  0  0  0  0  0  0  0  0  0
   10.5856   17.1737   19.4524 C   0  0  0  0  0  0  0  0  0  0  0  0
    9.4206   15.5571   17.9783 C   0  0  0  0  0  0  0  0  0  0  0  0
    9.0087   15.5316   20.5056 C   0  0  0  0  0  0  0  0  0  0  0  0
  2  1  1  6
  2  3  1  0
  3  4  2  0
  3  5  1  0
  5  6  1  0
  6  7  2  0
  7  8  1  0
  8  9  2  0
  9 10  1  0
 10 11  2  0
 11 12  1  0
 12 13  1  0
 12 14  2  0
 14 15  1  0
 15 16  2  0
  2 17  1  0
 17 18  1  0
 18 19  2  0
 19 20  1  0
 20 21  2  0
 21 22  1  0
 22 23  1  0
 22 24  1  0
 22 25  1  0
 16  6  1  0
 21 17  1  0
 16 10  1  0
M  END
>  <ref_pdb>  (13) 
x0554_0A

>  <ref_mols>  (13) 
x0554_0A,x0566_0A

>  <original SMILES>  (13) 
C[C@@H](C(=O)Nc1cccc2nc(Cl)ccc12)n1nnnc1C(C)(C)C

>  <IC50 (nM)>  (13) 
558.5473555755073

>  <CNNaffinity>  (13) 
6.25294

>  <rationale>  (13) 
-1

$$$$
PV_006968521656
     RDKit          3D

 27 30  0  0  0  0  0  0  0  0999 V2000
   11.5263   14.3170   24.0985 O   0  0  0  0  0  0  0  0  0  0  0  0
   11.5962   13.7061   23.0533 C   0  0  0  0  0  0  0  0  0  0  0  0
   12.5917   14.1527   21.9294 C   0  0  0  0  0  0  0  0  0  0  0  0
   12.1059   14.4003   20.5639 N   0  0  0  0  0  0  0  0  0  0  0  0
   12.1964   13.5375   19.4775 C   0  0  0  0  0  0  0  0  0  0  0  0
   12.9525   12.6152   19.3108 O   0  0  0  0  0  0  0  0  0  0  0  0
   11.2679   13.9269   18.5530 N   0  0  0  0  0  0  0  0  0  0  0  0
   11.0970   15.3799   18.6658 C   0  0  0  0  0  0  0  0  0  0  0  0
    9.6146   15.7394   18.5262 C   0  0  0  0  0  0  0  0  0  0  0  0
    9.1393   15.4517   17.1046 C   0  0  0  0  0  0  0  0  0  0  0  0
    9.9294   16.1144   16.1336 O   0  0  0  0  0  0  0  0  0  0  0  0
   11.2984   15.7653   16.1894 C   0  0  0  0  0  0  0  0  0  0  0  0
   11.9001   16.1095   17.5604 C   0  0  0  0  0  0  0  0  0  0  0  0
   11.5913   15.6071   20.1261 C   0  0  0  0  0  0  0  0  0  0  0  0
   11.5130   16.6009   20.8104 O   0  0  0  0  0  0  0  0  0  0  0  0
   10.8783   12.5653   22.7907 N   0  0  0  0  0  0  0  0  0  0  0  0
    9.9383   11.9547   23.6509 C   0  0  0  0  0  0  0  0  0  0  0  0
    9.0880   12.7133   24.4275 C   0  0  0  0  0  0  0  0  0  0  0  0
    8.0451   12.1025   25.1785 C   0  0  0  0  0  0  0  0  0  0  0  0
    7.8986   10.7362   25.1681 C   0  0  0  0  0  0  0  0  0  0  0  0
    8.7918    9.9315   24.4147 C   0  0  0  0  0  0  0  0  0  0  0  0
    8.5619    8.5849   24.4555 N   0  0  0  0  0  0  0  0  0  0  0  0
    9.3258    7.8222   23.7456 C   0  0  0  0  0  0  0  0  0  0  0  0
    8.8710    6.1377   23.6218 Cl  0  0  0  0  0  0  0  0  0  0  0  0
   10.4719    8.2655   23.0293 C   0  0  0  0  0  0  0  0  0  0  0  0
   10.7235    9.6137   22.9797 C   0  0  0  0  0  0  0  0  0  0  0  0
    9.8451   10.5213   23.6515 C   0  0  0  0  0  0  0  0  0  0  0  0
  1  2  2  0
  2  3  1  0
  3  4  1  0
  4  5  1  0
  5  6  2  0
  5  7  1  0
  7  8  1  0
  8  9  1  0
  9 10  1  0
 10 11  1  0
 11 12  1  0
 12 13  1  0
  8 14  1  0
 14 15  2  0
  2 16  1  0
 16 17  1  0
 17 18  2  0
 18 19  1  0
 19 20  2  0
 20 21  1  0
 21 22  2  0
 22 23  1  0
 23 24  1  0
 23 25  2  0
 25 26  1  0
 26 27  2  0
 14  4  1  0
 27 17  1  0
 13  8  1  0
 27 21  1  0
M  END
>  <ref_pdb>  (14) 
x0554_0A

>  <ref_mols>  (14) 
x0554_0A,x0566_0A

>  <original SMILES>  (14) 
O=C(CN1C(=O)NC2(CCOCC2)C1=O)Nc1cccc2nc(Cl)ccc12

>  <IC50 (nM)>  (14) 
562.4708239741309

>  <CNNaffinity>  (14) 
6.2499

>  <rationale>  (14) 
-1

$$$$
Z3091962522
     RDKit          3D

 26 29  0  0  0  0  0  0  0  0999 V2000
   11.6170   14.3600   24.1304 O   0  0  0  0  0  0  0  0  0  0  0  0
   11.7022   13.8715   23.0218 C   0  0  0  0  0  0  0  0  0  0  0  0
   12.6153   14.5324   21.9557 C   0  0  0  0  0  0  0  0  0  0  0  0
   12.0786   14.9530   20.6444 N   0  0  0  0  0  0  0  0  0  0  0  0
   12.1798   14.2100   19.4793 C   0  0  0  0  0  0  0  0  0  0  0  0
   12.7446   13.1468   19.4125 O   0  0  0  0  0  0  0  0  0  0  0  0
   11.4308   14.9294   18.3663 C   0  0  1  0  0  0  0  0  0  0  0  0
   10.0378   14.3079   18.1482 C   0  0  0  0  0  0  0  0  0  0  0  0
    9.1899   15.1985   17.2685 C   0  0  0  0  0  0  0  0  0  0  0  0
    9.2064   16.5185   17.4444 C   0  0  0  0  0  0  0  0  0  0  0  0
   10.0589   17.1977   18.4968 C   0  0  0  0  0  0  0  0  0  0  0  0
   11.3128   16.3754   18.8998 C   0  0  1  0  0  0  0  0  0  0  0  0
   11.4755   16.1819   20.4097 C   0  0  0  0  0  0  0  0  0  0  0  0
   11.1706   16.9513   21.2889 O   0  0  0  0  0  0  0  0  0  0  0  0
   11.0719   12.7006   22.6707 N   0  0  0  0  0  0  0  0  0  0  0  0
   10.0637   12.0885   23.4540 C   0  0  0  0  0  0  0  0  0  0  0  0
    9.1985   12.8757   24.1893 C   0  0  0  0  0  0  0  0  0  0  0  0
    8.1568   12.3084   24.9670 C   0  0  0  0  0  0  0  0  0  0  0  0
    7.9840   10.9473   24.9923 C   0  0  0  0  0  0  0  0  0  0  0  0
    8.8481   10.1087   24.2428 C   0  0  0  0  0  0  0  0  0  0  0  0
    8.5708    8.7708   24.3061 N   0  0  0  0  0  0  0  0  0  0  0  0
    9.3528    7.9669   23.6639 C   0  0  0  0  0  0  0  0  0  0  0  0
    8.8970    6.2789   23.6339 Cl  0  0  0  0  0  0  0  0  0  0  0  0
   10.5262    8.3620   22.9613 C   0  0  0  0  0  0  0  0  0  0  0  0
   10.7934    9.7067   22.8507 C   0  0  0  0  0  0  0  0  0  0  0  0
    9.9283   10.6569   23.4788 C   0  0  0  0  0  0  0  0  0  0  0  0
  1  2  2  0
  2  3  1  0
  3  4  1  0
  4  5  1  0
  5  6  2  0
  5  7  1  0
  7  8  1  1
  8  9  1  0
  9 10  2  0
 10 11  1  0
 12 11  1  1
 12 13  1  0
 13 14  2  0
  2 15  1  0
 15 16  1  0
 16 17  2  0
 17 18  1  0
 18 19  2  0
 19 20  1  0
 20 21  2  0
 21 22  1  0
 22 23  1  0
 22 24  2  0
 24 25  1  0
 25 26  2  0
 13  4  1  0
 26 16  1  0
 12  7  1  0
 26 20  1  0
M  END
>  <ref_pdb>  (15) 
x0554_0A

>  <ref_mols>  (15) 
x0554_0A,x0566_0A

>  <original SMILES>  (15) 
O=C(CN1C(=O)[C@H]2CC=CC[C@H]2C1=O)Nc1cccc2nc(Cl)ccc12

>  <IC50 (nM)>  (15) 
564.6898739317

>  <CNNaffinity>  (15) 
6.24819

>  <rationale>  (15) 
-1

$$$$
Z3091962942
     RDKit          3D

 26 29  0  0  0  0  0  0  0  0999 V2000
   11.6164   14.3724   24.1439 O   0  0  0  0  0  0  0  0  0  0  0  0
   11.6968   13.8815   23.0361 C   0  0  0  0  0  0  0  0  0  0  0  0
   12.6007   14.5379   21.9548 C   0  0  0  0  0  0  0  0  0  0  0  0
   12.0552   14.9496   20.6417 N   0  0  0  0  0  0  0  0  0  0  0  0
   11.4541   16.1772   20.4084 C   0  0  0  0  0  0  0  0  0  0  0  0
   11.1556   16.9462   21.2905 O   0  0  0  0  0  0  0  0  0  0  0  0
   11.2830   16.3768   18.9038 C   0  0  2  0  0  0  0  0  0  0  0  0
   10.0289   17.2021   18.5138 C   0  0  0  0  0  0  0  0  0  0  0  0
    9.1621   16.5366   17.4661 C   0  0  0  0  0  0  0  0  0  0  0  0
    9.1562   15.2191   17.2730 C   0  0  0  0  0  0  0  0  0  0  0  0
   10.0158   14.3260   18.1359 C   0  0  0  0  0  0  0  0  0  0  0  0
   11.4057   14.9399   18.3612 C   0  0  2  0  0  0  0  0  0  0  0  0
   12.1511   14.2161   19.4715 C   0  0  0  0  0  0  0  0  0  0  0  0
   12.7106   13.1498   19.3962 O   0  0  0  0  0  0  0  0  0  0  0  0
   11.0615   12.7144   22.6796 N   0  0  0  0  0  0  0  0  0  0  0  0
   10.0558   12.0981   23.4612 C   0  0  0  0  0  0  0  0  0  0  0  0
    9.1917   12.8852   24.1972 C   0  0  0  0  0  0  0  0  0  0  0  0
    8.1490   12.3170   24.9708 C   0  0  0  0  0  0  0  0  0  0  0  0
    7.9785   10.9551   24.9935 C   0  0  0  0  0  0  0  0  0  0  0  0
    8.8443   10.1178   24.2423 C   0  0  0  0  0  0  0  0  0  0  0  0
    8.5740    8.7787   24.3000 N   0  0  0  0  0  0  0  0  0  0  0  0
    9.3564    7.9785   23.6536 C   0  0  0  0  0  0  0  0  0  0  0  0
    8.9037    6.2889   23.6123 Cl  0  0  0  0  0  0  0  0  0  0  0  0
   10.5269    8.3795   22.9510 C   0  0  0  0  0  0  0  0  0  0  0  0
   10.7936    9.7236   22.8484 C   0  0  0  0  0  0  0  0  0  0  0  0
    9.9246   10.6676   23.4812 C   0  0  0  0  0  0  0  0  0  0  0  0
  1  2  2  0
  2  3  1  0
  3  4  1  0
  4  5  1  0
  5  6  2  0
  5  7  1  0
  7  8  1  1
  8  9  1  0
  9 10  2  0
 10 11  1  0
 12 11  1  1
 12 13  1  0
 13 14  2  0
  2 15  1  0
 15 16  1  0
 16 17  2  0
 17 18  1  0
 18 19  2  0
 19 20  1  0
 20 21  2  0
 21 22  1  0
 22 23  1  0
 22 24  2  0
 24 25  1  0
 25 26  2  0
 13  4  1  0
 26 16  1  0
 12  7  1  0
 26 20  1  0
M  END
>  <ref_pdb>  (16) 
x0554_0A

>  <ref_mols>  (16) 
x0554_0A,x0566_0A

>  <original SMILES>  (16) 
O=C(CN1C(=O)[C@H]2CC=CC[C@H]2C1=O)Nc1cccc2nc(Cl)ccc12

>  <IC50 (nM)>  (16) 
567.0482310953444

>  <CNNaffinity>  (16) 
6.24638

>  <rationale>  (16) 
-1

$$$$
Z3207006533
     RDKit          3D

 24 27  0  0  0  0  0  0  0  0999 V2000
   11.1240   14.5740   23.7134 O   0  0  0  0  0  0  0  0  0  0  0  0
   11.4549   13.7277   22.9048 C   0  0  0  0  0  0  0  0  0  0  0  0
   12.6695   13.9066   22.0085 C   0  0  0  0  0  0  0  0  0  0  0  0
   12.2766   14.2075   20.6422 N   0  0  0  0  0  0  0  0  0  0  0  0
   12.7274   13.4338   19.6461 N   0  0  0  0  0  0  0  0  0  0  0  0
   12.2116   13.8529   18.5374 N   0  0  0  0  0  0  0  0  0  0  0  0
   11.4030   14.8961   18.8007 C   0  0  0  0  0  0  0  0  0  0  0  0
   11.4436   15.1608   20.1515 C   0  0  0  0  0  0  0  0  0  0  0  0
   10.8006   16.3380   20.8266 C   0  0  0  0  0  0  0  0  0  0  0  0
    9.8998   17.1064   19.8175 C   0  0  0  0  0  0  0  0  0  0  0  0
   10.3903   17.1032   18.3477 C   0  0  0  0  0  0  0  0  0  0  0  0
   10.5860   15.6698   17.8175 C   0  0  0  0  0  0  0  0  0  0  0  0
   10.7811   12.5577   22.6885 N   0  0  0  0  0  0  0  0  0  0  0  0
    9.8450   11.9467   23.5436 C   0  0  0  0  0  0  0  0  0  0  0  0
    8.9955   12.7016   24.3225 C   0  0  0  0  0  0  0  0  0  0  0  0
    8.0142   12.0839   25.1462 C   0  0  0  0  0  0  0  0  0  0  0  0
    7.8952   10.7129   25.1632 C   0  0  0  0  0  0  0  0  0  0  0  0
    8.7652    9.9096   24.3767 C   0  0  0  0  0  0  0  0  0  0  0  0
    8.5538    8.5575   24.4212 N   0  0  0  0  0  0  0  0  0  0  0  0
    9.3253    7.8045   23.7069 C   0  0  0  0  0  0  0  0  0  0  0  0
    8.9067    6.1100   23.5925 Cl  0  0  0  0  0  0  0  0  0  0  0  0
   10.4658    8.2599   22.9868 C   0  0  0  0  0  0  0  0  0  0  0  0
   10.6846    9.6123   22.9174 C   0  0  0  0  0  0  0  0  0  0  0  0
    9.7887   10.5107   23.5809 C   0  0  0  0  0  0  0  0  0  0  0  0
  1  2  2  0
  2  3  1  0
  3  4  1  0
  4  5  1  0
  5  6  2  0
  6  7  1  0
  7  8  2  0
  8  9  1  0
  9 10  1  0
 10 11  1  0
 11 12  1  0
  2 13  1  0
 13 14  1  0
 14 15  2  0
 15 16  1  0
 16 17  2  0
 17 18  1  0
 18 19  2  0
 19 20  1  0
 20 21  1  0
 20 22  2  0
 22 23  1  0
 23 24  2  0
  8  4  1  0
 24 14  1  0
 12  7  1  0
 24 18  1  0
M  END
>  <ref_pdb>  (17) 
x0554_0A

>  <ref_mols>  (17) 
x0554_0A,x0566_0A

>  <original SMILES>  (17) 
O=C(Cn1nnc2c1CCCC2)Nc1cccc2nc(Cl)ccc12

>  <IC50 (nM)>  (17) 
569.023234527814

>  <CNNaffinity>  (17) 
6.24487

>  <rationale>  (17) 
-1

$$$$
Z4410143802
     RDKit          3D

 24 26  0  0  0  0  0  0  0  0999 V2000
    9.7073   14.8270   20.4676 C   0  0  0  0  0  0  0  0  0  0  0  0
   11.1377   15.3273   20.1476 C   0  0  0  0  0  0  0  0  0  0  0  0
   11.4331   16.5859   20.9745 C   0  0  0  0  0  0  0  0  0  0  0  0
   12.2138   14.2375   20.4744 C   0  0  0  0  0  0  0  0  0  0  0  0
   12.5023   13.9620   21.9655 C   0  0  0  0  0  0  0  0  0  0  0  0
   11.3060   13.7808   22.8930 C   0  0  0  0  0  0  0  0  0  0  0  0
   10.9125   14.6588   23.6418 O   0  0  0  0  0  0  0  0  0  0  0  0
   10.7020   12.5597   22.7810 N   0  0  0  0  0  0  0  0  0  0  0  0
    9.7841   11.9492   23.6452 C   0  0  0  0  0  0  0  0  0  0  0  0
    8.9246   12.6799   24.4363 C   0  0  0  0  0  0  0  0  0  0  0  0
    7.9523   12.0260   25.2440 C   0  0  0  0  0  0  0  0  0  0  0  0
    7.8571   10.6531   25.2340 C   0  0  0  0  0  0  0  0  0  0  0  0
    8.7386    9.8821   24.4300 C   0  0  0  0  0  0  0  0  0  0  0  0
    8.5509    8.5259   24.4478 N   0  0  0  0  0  0  0  0  0  0  0  0
    9.3296    7.8015   23.7140 C   0  0  0  0  0  0  0  0  0  0  0  0
    8.9370    6.1048   23.5503 Cl  0  0  0  0  0  0  0  0  0  0  0  0
   10.4579    8.2881   22.9965 C   0  0  0  0  0  0  0  0  0  0  0  0
   10.6551    9.6435   22.9579 C   0  0  0  0  0  0  0  0  0  0  0  0
    9.7502   10.5124   23.6479 C   0  0  0  0  0  0  0  0  0  0  0  0
   11.2252   15.5790   18.6420 C   0  0  0  0  0  0  0  0  0  0  0  0
   10.8924   14.6399   17.7575 N   0  0  0  0  0  0  0  0  0  0  0  0
   11.2212   15.2169   16.6185 N   0  0  0  0  0  0  0  0  0  0  0  0
   11.7230   16.4239   16.7401 N   0  0  0  0  0  0  0  0  0  0  0  0
   11.7234   16.6769   18.0178 N   0  0  0  0  0  0  0  0  0  0  0  0
  1  2  1  0
  2  3  1  0
  2  4  1  0
  4  5  1  0
  5  6  1  0
  6  7  2  0
  6  8  1  0
  8  9  1  0
  9 10  2  0
 10 11  1  0
 11 12  2  0
 12 13  1  0
 13 14  2  0
 14 15  1  0
 15 16  1  0
 15 17  2  0
 17 18  1  0
 18 19  2  0
  2 20  1  0
 20 21  2  0
 21 22  1  0
 22 23  1  0
 23 24  2  0
 19  9  1  0
 24 20  1  0
 19 13  1  0
M  END
>  <ref_pdb>  (18) 
x0554_0A

>  <ref_mols>  (18) 
x0554_0A,x0566_0A

>  <original SMILES>  (18) 
CC(C)(CCC(=O)Nc1cccc2nc(Cl)ccc12)c1nn[nH]n1

>  <IC50 (nM)>  (18) 
570.4531728344218

>  <CNNaffinity>  (18) 
6.24378

>  <rationale>  (18) 
-1

$$$$
PV_006839995173
     RDKit          3D

 25 27  0  0  0  0  0  0  0  0999 V2000
    8.8680   15.3217   17.5995 C   0  0  0  0  0  0  0  0  0  0  0  0
   10.0021   16.2293   18.1347 C   0  0  0  0  0  0  0  0  0  0  0  0
   10.6761   16.8933   16.9199 C   0  0  0  0  0  0  0  0  0  0  0  0
    9.4336   17.3114   19.0720 C   0  0  0  0  0  0  0  0  0  0  0  0
   11.0151   15.3573   18.8542 C   0  0  0  0  0  0  0  0  0  0  0  0
   11.1610   15.3203   20.1711 N   0  0  0  0  0  0  0  0  0  0  0  0
   12.0132   14.2925   20.3903 N   0  0  0  0  0  0  0  0  0  0  0  0
   12.5464   14.1305   21.7236 C   0  0  0  0  0  0  0  0  0  0  0  0
   11.3958   13.9116   22.6853 C   0  0  0  0  0  0  0  0  0  0  0  0
   11.0604   14.7644   23.4825 O   0  0  0  0  0  0  0  0  0  0  0  0
   10.8113   12.6787   22.5699 N   0  0  0  0  0  0  0  0  0  0  0  0
    9.8837   12.0866   23.4416 C   0  0  0  0  0  0  0  0  0  0  0  0
    9.0515   12.8692   24.2117 C   0  0  0  0  0  0  0  0  0  0  0  0
    8.0568   12.2849   25.0349 C   0  0  0  0  0  0  0  0  0  0  0  0
    7.9048   10.9198   25.0690 C   0  0  0  0  0  0  0  0  0  0  0  0
    8.7675   10.0885   24.3048 C   0  0  0  0  0  0  0  0  0  0  0  0
    8.5237    8.7441   24.3793 N   0  0  0  0  0  0  0  0  0  0  0  0
    9.2992    7.9557   23.7078 C   0  0  0  0  0  0  0  0  0  0  0  0
    8.8685    6.2610   23.6552 Cl  0  0  0  0  0  0  0  0  0  0  0  0
   10.4539    8.3710   22.9849 C   0  0  0  0  0  0  0  0  0  0  0  0
   10.7011    9.7176   22.8820 C   0  0  0  0  0  0  0  0  0  0  0  0
    9.8117   10.6522   23.5073 C   0  0  0  0  0  0  0  0  0  0  0  0
   12.3461   13.6538   19.2396 C   0  0  0  0  0  0  0  0  0  0  0  0
   13.0700   12.4772   19.1884 N   0  0  0  0  0  0  0  0  0  0  0  0
   11.7925   14.3697   18.2165 C   0  0  0  0  0  0  0  0  0  0  0  0
  1  2  1  0
  2  3  1  0
  2  4  1  0
  2  5  1  0
  5  6  2  0
  6  7  1  0
  7  8  1  0
  8  9  1  0
  9 10  2  0
  9 11  1  0
 11 12  1  0
 12 13  2  0
 13 14  1  0
 14 15  2  0
 15 16  1  0
 16 17  2  0
 17 18  1  0
 18 19  1  0
 18 20  2  0
 20 21  1  0
 21 22  2  0
  7 23  1  0
 23 24  1  0
 23 25  2  0
 25  5  1  0
 22 12  1  0
 22 16  1  0
M  END
>  <ref_pdb>  (19) 
x0554_0A

>  <ref_mols>  (19) 
x0554_0A,x0566_0A

>  <original SMILES>  (19) 
CC(C)(C)c1cc(N)n(CC(=O)Nc2cccc3nc(Cl)ccc23)n1

>  <IC50 (nM)>  (19) 
584.8843487662278

>  <CNNaffinity>  (19) 
6.23293

>  <rationale>  (19) 
-1

$$$$
PV_002108260640
     RDKit          3D

 27 30  0  0  0  0  0  0  0  0999 V2000
   11.2989   14.4425   24.4589 O   0  0  0  0  0  0  0  0  0  0  0  0
   11.4387   13.9112   23.3769 C   0  0  0  0  0  0  0  0  0  0  0  0
   12.4579   14.4808   22.3544 C   0  0  0  0  0  0  0  0  0  0  0  0
   12.0651   14.7205   20.9428 N   0  0  0  0  0  0  0  0  0  0  0  0
   12.3622   13.8243   19.9354 C   0  0  0  0  0  0  0  0  0  0  0  0
   12.0578   13.9575   18.7009 N   0  0  0  0  0  0  0  0  0  0  0  0
   11.3928   15.1072   18.2967 C   0  0  0  0  0  0  0  0  0  0  0  0
   11.0661   15.2566   16.9286 C   0  0  0  0  0  0  0  0  0  0  0  0
   10.4083   16.3880   16.4792 C   0  0  0  0  0  0  0  0  0  0  0  0
   10.0289   17.3752   17.4121 C   0  0  0  0  0  0  0  0  0  0  0  0
    9.3489   18.4420   16.9644 F   0  0  0  0  0  0  0  0  0  0  0  0
   10.3300   17.2679   18.7548 C   0  0  0  0  0  0  0  0  0  0  0  0
   11.0393   16.1236   19.1991 C   0  0  0  0  0  0  0  0  0  0  0  0
   11.4449   15.9554   20.6094 C   0  0  0  0  0  0  0  0  0  0  0  0
   11.2645   16.7932   21.4710 O   0  0  0  0  0  0  0  0  0  0  0  0
   10.7925   12.7639   23.0048 N   0  0  0  0  0  0  0  0  0  0  0  0
    9.8287   12.0748   23.7721 C   0  0  0  0  0  0  0  0  0  0  0  0
    8.9214   12.7683   24.5429 C   0  0  0  0  0  0  0  0  0  0  0  0
    7.8794   12.0935   25.2345 C   0  0  0  0  0  0  0  0  0  0  0  0
    7.7980   10.7217   25.1746 C   0  0  0  0  0  0  0  0  0  0  0  0
    8.7388    9.9769   24.4162 C   0  0  0  0  0  0  0  0  0  0  0  0
    8.5596    8.6204   24.3996 N   0  0  0  0  0  0  0  0  0  0  0  0
    9.3649    7.9190   23.6722 C   0  0  0  0  0  0  0  0  0  0  0  0
    8.9778    6.2258   23.4736 Cl  0  0  0  0  0  0  0  0  0  0  0  0
   10.4983    8.4377   22.9867 C   0  0  0  0  0  0  0  0  0  0  0  0
   10.6945    9.7970   22.9898 C   0  0  0  0  0  0  0  0  0  0  0  0
    9.7803   10.6407   23.6960 C   0  0  0  0  0  0  0  0  0  0  0  0
  1  2  2  0
  2  3  1  0
  3  4  1  0
  4  5  1  0
  5  6  2  0
  6  7  1  0
  7  8  2  0
  8  9  1  0
  9 10  2  0
 10 11  1  0
 10 12  1  0
 12 13  2  0
 13 14  1  0
 14 15  2  0
  2 16  1  0
 16 17  1  0
 17 18  2  0
 18 19  1  0
 19 20  2  0
 20 21  1  0
 21 22  2  0
 22 23  1  0
 23 24  1  0
 23 25  2  0
 25 26  1  0
 26 27  2  0
 14  4  1  0
 27 17  1  0
 13  7  1  0
 27 21  1  0
M  END
>  <ref_pdb>  (20) 
x0554_0A

>  <ref_mols>  (20) 
x0554_0A,x0566_0A

>  <original SMILES>  (20) 
O=C(Cn1cnc2ccc(F)cc2c1=O)Nc1cccc2nc(Cl)ccc12

>  <IC50 (nM)>  (20) 
590.6497167081792

>  <CNNaffinity>  (20) 
6.22867

>  <rationale>  (20) 
-1

$$$$
Z4410143796
     RDKit          3D

 25 29  0  0  0  0  0  0  0  0999 V2000
    9.6609   15.0004   23.3094 O   0  0  0  0  0  0  0  0  0  0  0  0
   10.1934   14.0852   22.7137 C   0  0  0  0  0  0  0  0  0  0  0  0
    9.6576   12.8212   22.6304 N   0  0  0  0  0  0  0  0  0  0  0  0
    8.9477   12.1231   23.6149 C   0  0  0  0  0  0  0  0  0  0  0  0
    8.1552   12.7825   24.5278 C   0  0  0  0  0  0  0  0  0  0  0  0
    7.4803   12.0730   25.5588 C   0  0  0  0  0  0  0  0  0  0  0  0
    7.6164   10.7085   25.6566 C   0  0  0  0  0  0  0  0  0  0  0  0
    8.3986    9.9999   24.7052 C   0  0  0  0  0  0  0  0  0  0  0  0
    8.4204    8.6363   24.8465 N   0  0  0  0  0  0  0  0  0  0  0  0
    8.9765    7.9525   23.8979 C   0  0  0  0  0  0  0  0  0  0  0  0
    8.7392    6.2193   23.9006 Cl  0  0  0  0  0  0  0  0  0  0  0  0
    9.7006    8.5054   22.8065 C   0  0  0  0  0  0  0  0  0  0  0  0
    9.7746    9.8713   22.7080 C   0  0  0  0  0  0  0  0  0  0  0  0
    9.0702   10.6911   23.6479 C   0  0  0  0  0  0  0  0  0  0  0  0
   11.5391   14.2036   22.0052 C   0  0  2  0  0  0  0  0  0  0  0  0
   11.3460   14.0094   20.5423 C   0  0  0  0  0  0  0  0  0  0  0  0
   12.3211   14.2612   19.6744 N   0  0  0  0  0  0  0  0  0  0  0  0
   11.7365   13.9497   18.5347 N   0  0  0  0  0  0  0  0  0  0  0  0
   10.4977   13.5343   18.6388 N   0  0  0  0  0  0  0  0  0  0  0  0
   10.2278   13.5687   19.9128 N   0  0  0  0  0  0  0  0  0  0  0  0
   12.5550   13.1107   22.6294 C   0  0  0  0  0  0  0  0  0  0  0  0
   13.5450   13.8279   23.5150 C   0  0  2  0  0  0  0  0  0  0  0  0
   13.4186   13.9120   23.9062 C   0  0  0  0  0  0  0  0  0  0  0  0
   13.5207   15.2407   22.6748 C   0  0  2  0  0  0  0  0  0  0  0  0
   12.2552   15.6413   22.2491 C   0  0  0  0  0  0  0  0  0  0  0  0
  1  2  2  0
  2  3  1  0
  3  4  1  0
  4  5  2  0
  5  6  1  0
  6  7  2  0
  7  8  1  0
  8  9  2  0
  9 10  1  0
 10 11  1  0
 10 12  2  0
 12 13  1  0
 13 14  2  0
 15  2  1  1
 15 16  1  0
 16 17  2  0
 17 18  1  0
 18 19  1  0
 19 20  2  0
 15 21  1  0
 22 21  1  6
 22 23  1  0
 24 23  1  1
 24 25  1  0
 14  4  1  0
 25 15  1  0
 14  8  1  0
 20 16  1  0
 24 22  1  0
M  END
>  <ref_pdb>  (21) 
x0554_0A

>  <ref_mols>  (21) 
x0554_0A,x0566_0A

>  <original SMILES>  (21) 
O=C(Nc1cccc2nc(Cl)ccc12)[C@@]1(c2nn[nH]n2)C[C@H]2C[C@H]2C1

>  <IC50 (nM)>  (21) 
604.5190622709047

>  <CNNaffinity>  (21) 
6.21859

>  <rationale>  (21) 
-1

$$$$
PV_002168325039
     RDKit          3D

 25 27  0  0  0  0  0  0  0  0999 V2000
   10.5061   14.9739   16.4212 C   0  0  0  0  0  0  0  0  0  0  0  0
   10.0524   16.0516   17.4372 C   0  0  0  0  0  0  0  0  0  0  0  0
   11.1206   16.0540   18.6080 C   0  0  0  0  0  0  0  0  0  0  0  0
   11.4351   14.5097   19.4372 S   0  0  0  0  0  6  0  0  0  0  0  0
   12.5025   13.8300   18.7270 O   0  0  0  0  0  0  0  0  0  0  0  0
   10.1940   13.8387   19.7676 O   0  0  0  0  0  0  0  0  0  0  0  0
   12.0429   15.0470   20.9057 N   0  0  0  0  0  0  0  0  0  0  0  0
   13.3530   15.7510   20.8483 C   0  0  0  0  0  0  0  0  0  0  0  0
   13.9205   15.5113   22.1541 C   0  0  0  0  0  0  0  0  0  0  0  0
   13.2698   14.5110   22.9323 C   0  0  0  0  0  0  0  0  0  0  0  0
   12.0970   14.0200   22.0014 C   0  0  1  0  0  0  0  0  0  0  0  0
   10.8322   13.7960   22.8992 C   0  0  0  0  0  0  0  0  0  0  0  0
   10.4660   14.5981   23.7384 O   0  0  0  0  0  0  0  0  0  0  0  0
   10.2528   12.5634   22.7312 N   0  0  0  0  0  0  0  0  0  0  0  0
    9.4732   11.8720   23.6750 C   0  0  0  0  0  0  0  0  0  0  0  0
    8.6165   12.5419   24.5185 C   0  0  0  0  0  0  0  0  0  0  0  0
    7.7401   11.8261   25.3764 C   0  0  0  0  0  0  0  0  0  0  0  0
    7.7491   10.4491   25.3755 C   0  0  0  0  0  0  0  0  0  0  0  0
    8.6515    9.7392   24.5371 C   0  0  0  0  0  0  0  0  0  0  0  0
    8.5522    8.3738   24.5469 N   0  0  0  0  0  0  0  0  0  0  0  0
    9.3330    7.7139   23.7537 C   0  0  0  0  0  0  0  0  0  0  0  0
    8.9941    6.0124   23.5347 Cl  0  0  0  0  0  0  0  0  0  0  0  0
   10.4111    8.2788   23.0142 C   0  0  0  0  0  0  0  0  0  0  0  0
   10.5275    9.6443   22.9944 C   0  0  0  0  0  0  0  0  0  0  0  0
    9.5768   10.4421   23.7098 C   0  0  0  0  0  0  0  0  0  0  0  0
  1  2  1  0
  2  3  1  0
  3  4  1  0
  4  5  2  0
  4  6  2  0
  4  7  1  0
  7  8  1  0
  8  9  1  0
  9 10  1  0
 10 11  1  0
 11 12  1  1
 12 13  2  0
 12 14  1  0
 14 15  1  0
 15 16  2  0
 16 17  1  0
 17 18  2  0
 18 19  1  0
 19 20  2  0
 20 21  1  0
 21 22  1  0
 21 23  2  0
 23 24  1  0
 24 25  2  0
 11  7  1  0
 25 15  1  0
 25 19  1  0
M  END
>  <ref_pdb>  (22) 
x0554_0A

>  <ref_mols>  (22) 
x0554_0A,x0566_0A

>  <original SMILES>  (22) 
CCCS(=O)(=O)N1CCC[C@H]1C(=O)Nc1cccc2nc(Cl)ccc12

>  <IC50 (nM)>  (22) 
613.1828504962211

>  <CNNaffinity>  (22) 
6.21241

>  <rationale>  (22) 
-1

$$$$
PV_006899426194
     RDKit          3D

 24 26  0  0  0  0  0  0  0  0999 V2000
    9.0551   15.2570   19.7275 C   0  0  0  0  0  0  0  0  0  0  0  0
    9.7533   15.7414   20.9953 C   0  0  0  0  0  0  0  0  0  0  0  0
   11.2392   16.0833   20.7651 C   0  0  0  0  0  0  0  0  0  0  0  0
   11.9867   14.9387   20.1747 C   0  0  0  0  0  0  0  0  0  0  0  0
   12.0322   14.7141   18.8909 N   0  0  0  0  0  0  0  0  0  0  0  0
   12.5511   13.4728   18.7159 N   0  0  0  0  0  0  0  0  0  0  0  0
   12.8311   12.9778   19.8791 C   0  0  0  0  0  0  0  0  0  0  0  0
   13.5555   11.3358   20.1323 S   0  0  0  0  0  0  0  0  0  0  0  0
   12.5178   13.8800   20.8764 N   0  0  0  0  0  0  0  0  0  0  0  0
   12.7560   13.8532   22.3262 C   0  0  0  0  0  0  0  0  0  0  0  0
   11.4990   13.7083   23.2047 C   0  0  0  0  0  0  0  0  0  0  0  0
   11.2195   14.5002   24.0801 O   0  0  0  0  0  0  0  0  0  0  0  0
   10.7565   12.6060   22.8861 N   0  0  0  0  0  0  0  0  0  0  0  0
    9.8065   11.9610   23.6873 C   0  0  0  0  0  0  0  0  0  0  0  0
    8.9246   12.6794   24.4645 C   0  0  0  0  0  0  0  0  0  0  0  0
    7.9347   12.0139   25.2390 C   0  0  0  0  0  0  0  0  0  0  0  0
    7.8505   10.6412   25.2129 C   0  0  0  0  0  0  0  0  0  0  0  0
    8.7503    9.8843   24.4129 C   0  0  0  0  0  0  0  0  0  0  0  0
    8.5679    8.5280   24.4103 N   0  0  0  0  0  0  0  0  0  0  0  0
    9.3607    7.8163   23.6783 C   0  0  0  0  0  0  0  0  0  0  0  0
    8.9800    6.1175   23.4996 Cl  0  0  0  0  0  0  0  0  0  0  0  0
   10.4937    8.3180   22.9763 C   0  0  0  0  0  0  0  0  0  0  0  0
   10.6865    9.6760   22.9536 C   0  0  0  0  0  0  0  0  0  0  0  0
    9.7719   10.5289   23.6539 C   0  0  0  0  0  0  0  0  0  0  0  0
  1  2  1  0
  2  3  1  0
  3  4  1  0
  4  5  2  0
  5  6  1  0
  6  7  2  0
  7  8  1  0
  7  9  1  0
  9 10  1  0
 10 11  1  0
 11 12  2  0
 11 13  1  0
 13 14  1  0
 14 15  2  0
 15 16  1  0
 16 17  2  0
 17 18  1  0
 18 19  2  0
 19 20  1  0
 20 21  1  0
 20 22  2  0
 22 23  1  0
 23 24  2  0
  9  4  1  0
 24 14  1  0
 24 18  1  0
M  END
>  <ref_pdb>  (23) 
x0554_0A

>  <ref_mols>  (23) 
x0554_0A,x0566_0A

>  <original SMILES>  (23) 
CCCc1nnc(S)n1CC(=O)Nc1cccc2nc(Cl)ccc12

>  <IC50 (nM)>  (23) 
615.7862680963648

>  <CNNaffinity>  (23) 
6.21057

>  <rationale>  (23) 
-1

$$$$
Z4350656812
     RDKit          3D

 24 27  0  0  0  0  0  0  0  0999 V2000
   10.3427   14.9736   16.8243 C   0  0  0  0  0  0  0  0  0  0  0  0
   10.7948   15.0250   18.2406 C   0  0  0  0  0  0  0  0  0  0  0  0
   10.2497   14.4007   19.2542 N   0  0  0  0  0  0  0  0  0  0  0  0
   11.0531   14.6996   20.3202 C   0  0  0  0  0  0  0  0  0  0  0  0
   12.1009   15.5015   19.9422 C   0  0  0  0  0  0  0  0  0  0  0  0
   13.2499   15.9306   20.7932 C   0  0  0  0  0  0  0  0  0  0  0  0
   13.2281   15.1651   22.1224 C   0  0  0  0  0  0  0  0  0  0  0  0
   11.8158   14.9948   22.6909 C   0  0  0  0  0  0  0  0  0  0  0  0
   11.0667   14.0847   21.6719 C   0  0  1  0  0  0  0  0  0  0  0  0
    9.7337   13.5967   22.1947 C   0  0  0  0  0  0  0  0  0  0  0  0
    8.7097   14.2425   22.1927 O   0  0  0  0  0  0  0  0  0  0  0  0
    9.8746   12.3467   22.7566 N   0  0  0  0  0  0  0  0  0  0  0  0
    9.0934   11.6638   23.6850 C   0  0  0  0  0  0  0  0  0  0  0  0
    8.1840   12.3043   24.4968 C   0  0  0  0  0  0  0  0  0  0  0  0
    7.4556   11.5722   25.4738 C   0  0  0  0  0  0  0  0  0  0  0  0
    7.6314   10.2117   25.5918 C   0  0  0  0  0  0  0  0  0  0  0  0
    8.5208    9.5251   24.7236 C   0  0  0  0  0  0  0  0  0  0  0  0
    8.5029    8.1561   24.8010 N   0  0  0  0  0  0  0  0  0  0  0  0
    9.2025    7.5087   23.9297 C   0  0  0  0  0  0  0  0  0  0  0  0
    8.8727    5.7992   23.7561 Cl  0  0  0  0  0  0  0  0  0  0  0  0
   10.1805    8.0946   23.0772 C   0  0  0  0  0  0  0  0  0  0  0  0
   10.2410    9.4628   23.0113 C   0  0  0  0  0  0  0  0  0  0  0  0
    9.3219   10.2450   23.7894 C   0  0  0  0  0  0  0  0  0  0  0  0
   11.9046   15.7330   18.6011 N   0  0  0  0  0  0  0  0  0  0  0  0
  1  2  1  0
  2  3  2  0
  3  4  1  0
  4  5  2  0
  5  6  1  0
  6  7  1  0
  7  8  1  0
  8  9  1  0
  9 10  1  1
 10 11  2  0
 10 12  1  0
 12 13  1  0
 13 14  2  0
 14 15  1  0
 15 16  2  0
 16 17  1  0
 17 18  2  0
 18 19  1  0
 19 20  1  0
 19 21  2  0
 21 22  1  0
 22 23  2  0
  5 24  1  0
 24  2  1  0
  9  4  1  0
 23 13  1  0
 23 17  1  0
M  END
>  <ref_pdb>  (24) 
x0554_0A

>  <ref_mols>  (24) 
x0554_0A,x0566_0A

>  <original SMILES>  (24) 
Cc1nc2c([nH]1)CCC[C@H]2C(=O)Nc1cccc2nc(Cl)ccc12

>  <IC50 (nM)>  (24) 
616.6801934937588

>  <CNNaffinity>  (24) 
6.20994

>  <rationale>  (24) 
-1

$$$$
Z4686686307
     RDKit          3D

 25 28  0  0  0  0  0  0  0  0999 V2000
   11.1892   14.6499   24.4609 O   0  0  0  0  0  0  0  0  0  0  0  0
   11.5240   14.0204   23.4735 C   0  0  0  0  0  0  0  0  0  0  0  0
   12.6640   14.5273   22.5931 C   0  0  0  0  0  0  0  0  0  0  0  0
   12.3010   14.6544   21.2065 N   0  0  0  0  0  0  0  0  0  0  0  0
   11.8396   15.7395   20.5387 C   0  0  0  0  0  0  0  0  0  0  0  0
   11.3485   15.2912   19.3330 C   0  0  0  0  0  0  0  0  0  0  0  0
   10.8785   16.1057   18.1734 C   0  0  2  0  0  0  0  0  0  0  0  0
    9.6989   15.5159   17.3947 C   0  0  0  0  0  0  0  0  0  0  0  0
    9.8621   16.1820   16.0421 C   0  0  0  0  0  0  0  0  0  0  0  0
   11.2618   16.1917   15.8100 O   0  0  0  0  0  0  0  0  0  0  0  0
   11.9415   16.2722   17.0544 C   0  0  0  0  0  0  0  0  0  0  0  0
   11.5439   13.8943   19.3889 C   0  0  0  0  0  0  0  0  0  0  0  0
   12.1244   13.5313   20.5245 N   0  0  0  0  0  0  0  0  0  0  0  0
   10.9677   12.8293   23.1020 N   0  0  0  0  0  0  0  0  0  0  0  0
    9.9152   12.1684   23.7520 C   0  0  0  0  0  0  0  0  0  0  0  0
    8.9473   12.8778   24.4263 C   0  0  0  0  0  0  0  0  0  0  0  0
    7.8616   12.2195   25.0557 C   0  0  0  0  0  0  0  0  0  0  0  0
    7.7727   10.8485   25.0155 C   0  0  0  0  0  0  0  0  0  0  0  0
    8.7493   10.0894   24.3140 C   0  0  0  0  0  0  0  0  0  0  0  0
    8.5575    8.7344   24.2793 N   0  0  0  0  0  0  0  0  0  0  0  0
    9.3992    8.0247   23.5992 C   0  0  0  0  0  0  0  0  0  0  0  0
    9.0446    6.3247   23.3964 Cl  0  0  0  0  0  0  0  0  0  0  0  0
   10.5620    8.5334   22.9571 C   0  0  0  0  0  0  0  0  0  0  0  0
   10.7666    9.8881   22.9751 C   0  0  0  0  0  0  0  0  0  0  0  0
    9.8430   10.7378   23.6616 C   0  0  0  0  0  0  0  0  0  0  0  0
  1  2  2  0
  2  3  1  0
  3  4  1  0
  4  5  1  0
  5  6  2  0
  7  6  1  1
  7  8  1  0
  8  9  1  0
  9 10  1  0
 10 11  1  0
  6 12  1  0
 12 13  2  0
  2 14  1  0
 14 15  1  0
 15 16  2  0
 16 17  1  0
 17 18  2  0
 18 19  1  0
 19 20  2  0
 20 21  1  0
 21 22  1  0
 21 23  2  0
 23 24  1  0
 24 25  2  0
 13  4  1  0
 25 15  1  0
 11  7  1  0
 25 19  1  0
M  END
>  <ref_pdb>  (25) 
x0554_0A

>  <ref_mols>  (25) 
x0554_0A,x0566_0A

>  <original SMILES>  (25) 
O=C(Cn1cc([C@@H]2CCOC2)cn1)Nc1cccc2nc(Cl)ccc12

>  <IC50 (nM)>  (25) 
623.2754199472099

>  <CNNaffinity>  (25) 
6.20532

>  <rationale>  (25) 
-1

$$$$
Z3091962858
     RDKit          3D

 24 26  0  0  0  0  0  0  0  0999 V2000
   11.2497   14.5022   24.1618 O   0  0  0  0  0  0  0  0  0  0  0  0
   11.4171   13.8936   23.1222 C   0  0  0  0  0  0  0  0  0  0  0  0
   12.5091   14.3152   22.1117 C   0  0  0  0  0  0  0  0  0  0  0  0
   12.1681   15.0185   20.7508 C   0  0  0  0  0  0  0  0  0  0  0  0
   11.5111   13.9621   19.4400 S   0  0  0  0  0  6  0  0  0  0  0  0
   10.2463   13.4471   19.9753 O   0  0  0  0  0  0  0  0  0  0  0  0
   12.5962   13.0749   19.0397 O   0  0  0  0  0  0  0  0  0  0  0  0
   11.1418   15.0819   18.0667 C   0  0  0  0  0  0  0  0  0  0  0  0
   10.2750   14.4559   16.9587 C   0  0  0  0  0  0  0  0  0  0  0  0
    9.8377   15.6823   16.1511 C   0  0  0  0  0  0  0  0  0  0  0  0
    9.6168   16.8026   17.1906 C   0  0  0  0  0  0  0  0  0  0  0  0
   10.3508   16.3437   18.4715 C   0  0  0  0  0  0  0  0  0  0  0  0
   10.7150   12.7721   22.7653 N   0  0  0  0  0  0  0  0  0  0  0  0
    9.8053   12.0920   23.5993 C   0  0  0  0  0  0  0  0  0  0  0  0
    8.9505   12.7959   24.4202 C   0  0  0  0  0  0  0  0  0  0  0  0
    7.9720   12.1321   25.2060 C   0  0  0  0  0  0  0  0  0  0  0  0
    7.8768   10.7627   25.1721 C   0  0  0  0  0  0  0  0  0  0  0  0
    8.7663   10.0094   24.3597 C   0  0  0  0  0  0  0  0  0  0  0  0
    8.5790    8.6542   24.3702 N   0  0  0  0  0  0  0  0  0  0  0  0
    9.3769    7.9320   23.6542 C   0  0  0  0  0  0  0  0  0  0  0  0
    8.9880    6.2327   23.4953 Cl  0  0  0  0  0  0  0  0  0  0  0  0
   10.5101    8.4289   22.9498 C   0  0  0  0  0  0  0  0  0  0  0  0
   10.6987    9.7897   22.9020 C   0  0  0  0  0  0  0  0  0  0  0  0
    9.7807   10.6549   23.5830 C   0  0  0  0  0  0  0  0  0  0  0  0
  1  2  2  0
  2  3  1  0
  3  4  1  0
  4  5  1  0
  5  6  2  0
  5  7  2  0
  5  8  1  0
  8  9  1  0
  9 10  1  0
 10 11  1  0
 11 12  1  0
  2 13  1  0
 13 14  1  0
 14 15  2  0
 15 16  1  0
 16 17  2  0
 17 18  1  0
 18 19  2  0
 19 20  1  0
 20 21  1  0
 20 22  2  0
 22 23  1  0
 23 24  2  0
 12  8  1  0
 24 14  1  0
 24 18  1  0
M  END
>  <ref_pdb>  (26) 
x0554_0A

>  <ref_mols>  (26) 
x0554_0A,x0566_0A

>  <original SMILES>  (26) 
O=C(CCS(=O)(=O)C1CCCC1)Nc1cccc2nc(Cl)ccc12

>  <IC50 (nM)>  (26) 
629.3177771550775

>  <CNNaffinity>  (26) 
6.20113

>  <rationale>  (26) 
-1

$$$$
Z4386726361
     RDKit          3D

 23 26  0  0  0  0  0  0  0  0999 V2000
   11.0589   14.6425   24.1199 O   0  0  0  0  0  0  0  0  0  0  0  0
   11.3937   13.9522   23.1791 C   0  0  0  0  0  0  0  0  0  0  0  0
   12.5522   14.3922   22.2959 C   0  0  0  0  0  0  0  0  0  0  0  0
   12.2034   14.4246   20.8972 N   0  0  0  0  0  0  0  0  0  0  0  0
   12.5043   13.4580   20.0683 N   0  0  0  0  0  0  0  0  0  0  0  0
   12.0121   13.7908   18.9112 N   0  0  0  0  0  0  0  0  0  0  0  0
   11.4149   14.9976   19.0866 C   0  0  0  0  0  0  0  0  0  0  0  0
   10.7676   15.8046   18.0320 C   0  0  0  0  0  0  0  0  0  0  0  0
   10.9283   15.4732   16.5630 C   0  0  0  0  0  0  0  0  0  0  0  0
    9.5782   15.3634   17.1944 C   0  0  0  0  0  0  0  0  0  0  0  0
   11.5222   15.4100   20.3468 N   0  0  0  0  0  0  0  0  0  0  0  0
   10.8229   12.7494   22.8642 N   0  0  0  0  0  0  0  0  0  0  0  0
    9.8451   12.0698   23.6229 C   0  0  0  0  0  0  0  0  0  0  0  0
    8.9264   12.7735   24.3772 C   0  0  0  0  0  0  0  0  0  0  0  0
    7.9269   12.1071   25.1350 C   0  0  0  0  0  0  0  0  0  0  0  0
    7.8550   10.7371   25.1273 C   0  0  0  0  0  0  0  0  0  0  0  0
    8.7734    9.9846   24.3519 C   0  0  0  0  0  0  0  0  0  0  0  0
    8.5755    8.6313   24.3673 N   0  0  0  0  0  0  0  0  0  0  0  0
    9.3683    7.9019   23.6547 C   0  0  0  0  0  0  0  0  0  0  0  0
    8.9679    6.2043   23.5118 Cl  0  0  0  0  0  0  0  0  0  0  0  0
   10.5012    8.3940   22.9490 C   0  0  0  0  0  0  0  0  0  0  0  0
   10.7084    9.7530   22.9086 C   0  0  0  0  0  0  0  0  0  0  0  0
    9.8052   10.6294   23.5952 C   0  0  0  0  0  0  0  0  0  0  0  0
  1  2  2  0
  2  3  1  0
  3  4  1  0
  4  5  1  0
  5  6  2  0
  6  7  1  0
  7  8  1  0
  8  9  1  0
  9 10  1  0
  7 11  2  0
  2 12  1  0
 12 13  1  0
 13 14  2  0
 14 15  1  0
 15 16  2  0
 16 17  1  0
 17 18  2  0
 18 19  1  0
 19 20  1  0
 19 21  2  0
 21 22  1  0
 22 23  2  0
 11  4  1  0
 23 13  1  0
 10  8  1  0
 23 17  1  0
M  END
>  <ref_pdb>  (27) 
x0554_0A

>  <ref_mols>  (27) 
x0554_0A,x0566_0A

>  <original SMILES>  (27) 
O=C(Cn1nnc(C2CC2)n1)Nc1cccc2nc(Cl)ccc12

>  <IC50 (nM)>  (27) 
640.8110617805378

>  <CNNaffinity>  (27) 
6.19327

>  <rationale>  (27) 
-1

$$$$
PV_006887320932
     RDKit          3D

 24 26  0  0  0  0  0  0  0  0999 V2000
   10.7588   14.7598   23.6028 O   0  0  0  0  0  0  0  0  0  0  0  0
   11.2009   13.8804   22.8968 C   0  0  0  0  0  0  0  0  0  0  0  0
   12.4484   14.0848   22.0301 C   0  0  0  0  0  0  0  0  0  0  0  0
   12.1189   14.4716   20.6198 C   0  0  0  0  0  0  0  0  0  0  0  0
   11.6686   15.6634   20.1016 C   0  0  0  0  0  0  0  0  0  0  0  0
   11.3921   15.4002   18.7397 C   0  0  0  0  0  0  0  0  0  0  0  0
   10.7982   16.3370   17.7063 C   0  0  0  0  0  0  0  0  0  0  0  0
   11.0624   15.9516   16.4528 F   0  0  0  0  0  0  0  0  0  0  0  0
   11.2771   17.5894   17.8605 F   0  0  0  0  0  0  0  0  0  0  0  0
    9.4591   16.4321   17.8311 F   0  0  0  0  0  0  0  0  0  0  0  0
   11.6607   14.1337   18.4406 N   0  0  0  0  0  0  0  0  0  0  0  0
   12.1019   13.6030   19.5780 N   0  0  0  0  0  0  0  0  0  0  0  0
   10.6655   12.6273   22.7846 N   0  0  0  0  0  0  0  0  0  0  0  0
    9.7701   11.9768   23.6405 C   0  0  0  0  0  0  0  0  0  0  0  0
    8.9110   12.6819   24.4537 C   0  0  0  0  0  0  0  0  0  0  0  0
    7.9635   12.0023   25.2658 C   0  0  0  0  0  0  0  0  0  0  0  0
    7.8888   10.6294   25.2381 C   0  0  0  0  0  0  0  0  0  0  0  0
    8.7648    9.8839   24.4067 C   0  0  0  0  0  0  0  0  0  0  0  0
    8.5811    8.5267   24.4072 N   0  0  0  0  0  0  0  0  0  0  0  0
    9.3743    7.8171   23.6751 C   0  0  0  0  0  0  0  0  0  0  0  0
    8.9860    6.1227   23.4810 Cl  0  0  0  0  0  0  0  0  0  0  0  0
   10.5080    8.3219   22.9772 C   0  0  0  0  0  0  0  0  0  0  0  0
   10.6906    9.6824   22.9397 C   0  0  0  0  0  0  0  0  0  0  0  0
    9.7655   10.5372   23.6268 C   0  0  0  0  0  0  0  0  0  0  0  0
  1  2  2  0
  2  3  1  0
  3  4  1  0
  4  5  2  0
  5  6  1  0
  6  7  1  0
  7  8  1  0
  7  9  1  0
  7 10  1  0
  6 11  2  0
 11 12  1  0
  2 13  1  0
 13 14  1  0
 14 15  2  0
 15 16  1  0
 16 17  2  0
 17 18  1  0
 18 19  2  0
 19 20  1  0
 20 21  1  0
 20 22  2  0
 22 23  1  0
 23 24  2  0
 12  4  1  0
 24 14  1  0
 24 18  1  0
M  END
>  <ref_pdb>  (28) 
x0554_0A

>  <ref_mols>  (28) 
x0554_0A,x0566_0A

>  <original SMILES>  (28) 
O=C(Cc1cc(C(F)(F)F)n[nH]1)Nc1cccc2nc(Cl)ccc12

>  <IC50 (nM)>  (28) 
683.4708552573504

>  <CNNaffinity>  (28) 
6.16528

>  <rationale>  (28) 
-1

$$$$
PV_006996969955
     RDKit          3D

 24 27  0  0  0  0  0  0  0  0999 V2000
   10.0561   14.9088   23.1347 O   0  0  0  0  0  0  0  0  0  0  0  0
   10.5237   13.9183   22.6134 C   0  0  0  0  0  0  0  0  0  0  0  0
    9.8472   12.7316   22.5182 N   0  0  0  0  0  0  0  0  0  0  0  0
    9.0719   12.1114   23.5018 C   0  0  0  0  0  0  0  0  0  0  0  0
    8.2992   12.8499   24.3685 C   0  0  0  0  0  0  0  0  0  0  0  0
    7.5575   12.2132   25.3986 C   0  0  0  0  0  0  0  0  0  0  0  0
    7.6204   10.8475   25.5498 C   0  0  0  0  0  0  0  0  0  0  0  0
    8.3995   10.0611   24.6582 C   0  0  0  0  0  0  0  0  0  0  0  0
    8.3781    8.7056   24.8651 N   0  0  0  0  0  0  0  0  0  0  0  0
    8.9445    7.9613   23.9702 C   0  0  0  0  0  0  0  0  0  0  0  0
    8.6570    6.2387   24.0422 Cl  0  0  0  0  0  0  0  0  0  0  0  0
    9.7161    8.4407   22.8771 C   0  0  0  0  0  0  0  0  0  0  0  0
    9.8160    9.7946   22.7002 C   0  0  0  0  0  0  0  0  0  0  0  0
    9.1195   10.6773   23.5881 C   0  0  0  0  0  0  0  0  0  0  0  0
   11.9151   13.8962   21.9337 C   0  0  0  0  0  0  0  0  0  0  0  0
   11.6059   14.0376   20.4748 C   0  0  0  0  0  0  0  0  0  0  0  0
   10.4508   13.6878   19.9035 N   0  0  0  0  0  0  0  0  0  0  0  0
   10.6840   14.0096   18.6435 N   0  0  0  0  0  0  0  0  0  0  0  0
   11.8606   14.5386   18.4090 N   0  0  0  0  0  0  0  0  0  0  0  0
   12.4623   14.5581   19.5632 N   0  0  0  0  0  0  0  0  0  0  0  0
   12.8009   15.0945   22.5127 C   0  0  0  0  0  0  0  0  0  0  0  0
   13.4033   14.3991   23.6810 C   0  0  0  0  0  0  0  0  0  0  0  0
   13.4322   13.1109   23.7438 C   0  0  0  0  0  0  0  0  0  0  0  0
   12.7237   12.6019   22.3834 C   0  0  0  0  0  0  0  0  0  0  0  0
  1  2  2  0
  2  3  1  0
  3  4  1  0
  4  5  2  0
  5  6  1  0
  6  7  2  0
  7  8  1  0
  8  9  2  0
  9 10  1  0
 10 11  1  0
 10 12  2  0
 12 13  1  0
 13 14  2  0
  2 15  1  0
 15 16  1  0
 16 17  2  0
 17 18  1  0
 18 19  1  0
 19 20  2  0
 15 21  1  0
 21 22  1  0
 22 23  2  0
 23 24  1  0
 14  4  1  0
 24 15  1  0
 14  8  1  0
 20 16  1  0
M  END
>  <ref_pdb>  (29) 
x0554_0A

>  <ref_mols>  (29) 
x0554_0A,x0566_0A

>  <original SMILES>  (29) 
O=C(Nc1cccc2nc(Cl)ccc12)C1(c2nn[nH]n2)CC=CC1

>  <IC50 (nM)>  (29) 
689.0805631949894

>  <CNNaffinity>  (29) 
6.16173

>  <rationale>  (29) 
-1

$$$$
PV_006924576461
     RDKit          3D

 25 28  0  0  0  0  0  0  0  0999 V2000
   10.6975   14.6807   23.8217 O   0  0  0  0  0  0  0  0  0  0  0  0
   11.1266   13.8503   23.0462 C   0  0  0  0  0  0  0  0  0  0  0  0
   12.2397   14.1721   22.0633 C   0  0  0  0  0  0  0  0  0  0  0  0
   11.7952   14.8704   20.7420 C   0  0  2  0  0  0  0  0  0  0  0  0
   11.0320   13.9869   19.7299 C   0  0  0  0  0  0  0  0  0  0  0  0
   10.8668   14.7325   18.4762 N   0  0  0  0  0  0  0  0  0  0  0  0
    9.8866   14.7944   17.4942 C   0  0  0  0  0  0  0  0  0  0  0  0
   10.4483   15.5125   16.4751 C   0  0  0  0  0  0  0  0  0  0  0  0
   11.7447   15.8972   16.7826 N   0  0  0  0  0  0  0  0  0  0  0  0
   11.9353   15.3823   17.9543 C   0  0  0  0  0  0  0  0  0  0  0  0
   13.0927   15.4496   18.6941 N   0  0  0  0  0  0  0  0  0  0  0  0
   13.0191   15.5320   20.0719 C   0  0  0  0  0  0  0  0  0  0  0  0
   13.8451   16.1420   20.7066 O   0  0  0  0  0  0  0  0  0  0  0  0
   10.6684   12.5681   22.9618 N   0  0  0  0  0  0  0  0  0  0  0  0
    9.7228   11.9137   23.7549 C   0  0  0  0  0  0  0  0  0  0  0  0
    8.8223   12.6147   24.5266 C   0  0  0  0  0  0  0  0  0  0  0  0
    7.8519   11.9334   25.3074 C   0  0  0  0  0  0  0  0  0  0  0  0
    7.7924   10.5587   25.2843 C   0  0  0  0  0  0  0  0  0  0  0  0
    8.7028    9.8163   24.4857 C   0  0  0  0  0  0  0  0  0  0  0  0
    8.5379    8.4575   24.4903 N   0  0  0  0  0  0  0  0  0  0  0  0
    9.3186    7.7549   23.7377 C   0  0  0  0  0  0  0  0  0  0  0  0
    8.9450    6.0560   23.5578 Cl  0  0  0  0  0  0  0  0  0  0  0  0
   10.4294    8.2694   23.0127 C   0  0  0  0  0  0  0  0  0  0  0  0
   10.6125    9.6284   22.9963 C   0  0  0  0  0  0  0  0  0  0  0  0
    9.7079   10.4758   23.7171 C   0  0  0  0  0  0  0  0  0  0  0  0
  1  2  2  0
  2  3  1  0
  4  3  1  1
  4  5  1  0
  5  6  1  0
  6  7  1  0
  7  8  2  0
  8  9  1  0
  9 10  2  0
 10 11  1  0
 11 12  1  0
 12 13  2  0
  2 14  1  0
 14 15  1  0
 15 16  2  0
 16 17  1  0
 17 18  2  0
 18 19  1  0
 19 20  2  0
 20 21  1  0
 21 22  1  0
 21 23  2  0
 23 24  1  0
 24 25  2  0
 12  4  1  0
 25 15  1  0
 10  6  1  0
 25 19  1  0
M  END
>  <ref_pdb>  (30) 
x0554_0A

>  <ref_mols>  (30) 
x0554_0A,x0566_0A

>  <original SMILES>  (30) 
O=C(C[C@@H]1Cn2ccnc2NC1=O)Nc1cccc2nc(Cl)ccc12

>  <IC50 (nM)>  (30) 
696.6746370276591

>  <CNNaffinity>  (30) 
6.15697

>  <rationale>  (30) 
-1

$$$$
Z3091962725
     RDKit          3D

 23 26  0  0  0  0  0  0  0  0999 V2000
   11.1243   14.6541   23.9370 O   0  0  0  0  0  0  0  0  0  0  0  0
   11.4296   13.9115   23.0274 C   0  0  0  0  0  0  0  0  0  0  0  0
   12.5443   14.2772   22.0474 C   0  0  0  0  0  0  0  0  0  0  0  0
   12.0485   14.5166   20.7067 N   0  0  0  0  0  0  0  0  0  0  0  0
   11.3149   15.5641   20.2703 C   0  0  0  0  0  0  0  0  0  0  0  0
   11.0422   15.2743   18.9569 C   0  0  0  0  0  0  0  0  0  0  0  0
   10.2066   16.0192   17.9896 C   0  0  0  0  0  0  0  0  0  0  0  0
   10.5524   17.3853   17.4440 C   0  0  0  0  0  0  0  0  0  0  0  0
   10.6209   16.1732   16.5552 C   0  0  0  0  0  0  0  0  0  0  0  0
   11.6233   14.0742   18.6718 N   0  0  0  0  0  0  0  0  0  0  0  0
   12.2202   13.6275   19.7319 N   0  0  0  0  0  0  0  0  0  0  0  0
   10.8423   12.6993   22.7794 N   0  0  0  0  0  0  0  0  0  0  0  0
    9.8832   12.0444   23.5787 C   0  0  0  0  0  0  0  0  0  0  0  0
    8.9885   12.7726   24.3338 C   0  0  0  0  0  0  0  0  0  0  0  0
    7.9838   12.1320   25.1079 C   0  0  0  0  0  0  0  0  0  0  0  0
    7.8864   10.7608   25.1125 C   0  0  0  0  0  0  0  0  0  0  0  0
    8.7925    9.9830   24.3454 C   0  0  0  0  0  0  0  0  0  0  0  0
    8.5799    8.6315   24.3681 N   0  0  0  0  0  0  0  0  0  0  0  0
    9.3627    7.8914   23.6533 C   0  0  0  0  0  0  0  0  0  0  0  0
    8.9576    6.1951   23.5189 Cl  0  0  0  0  0  0  0  0  0  0  0  0
   10.4994    8.3664   22.9414 C   0  0  0  0  0  0  0  0  0  0  0  0
   10.7254    9.7199   22.8994 C   0  0  0  0  0  0  0  0  0  0  0  0
    9.8317   10.6064   23.5812 C   0  0  0  0  0  0  0  0  0  0  0  0
  1  2  2  0
  2  3  1  0
  3  4  1  0
  4  5  1  0
  5  6  2  0
  6  7  1  0
  7  8  1  0
  8  9  1  0
  6 10  1  0
 10 11  2  0
  2 12  1  0
 12 13  1  0
 13 14  2  0
 14 15  1  0
 15 16  2  0
 16 17  1  0
 17 18  2  0
 18 19  1  0
 19 20  1  0
 19 21  2  0
 21 22  1  0
 22 23  2  0
 11  4  1  0
 23 13  1  0
  9  7  1  0
 23 17  1  0
M  END
>  <ref_pdb>  (31) 
x0554_0A

>  <ref_mols>  (31) 
x0554_0A,x0566_0A

>  <original SMILES>  (31) 
O=C(Cn1cc(C2CC2)nn1)Nc1cccc2nc(Cl)ccc12

>  <IC50 (nM)>  (31) 
704.9365033677202

>  <CNNaffinity>  (31) 
6.15185

>  <rationale>  (31) 
-1

$$$$
PV_002323793229
     RDKit          3D

 26 28  0  0  0  0  0  0  0  0999 V2000
    8.6257   13.8733   16.3360 C   0  0  0  0  0  0  0  0  0  0  0  0
   10.0028   15.0006   16.1760 S   0  0  0  0  0  6  0  0  0  0  0  0
   11.1064   14.2023   15.6547 O   0  0  0  0  0  0  0  0  0  0  0  0
    9.5019   16.1926   15.5023 O   0  0  0  0  0  0  0  0  0  0  0  0
   10.4260   15.4819   17.8598 C   0  0  0  0  0  0  0  0  0  0  0  0
    9.9880   16.7186   18.3742 C   0  0  0  0  0  0  0  0  0  0  0  0
   10.2801   17.0269   19.6994 C   0  0  0  0  0  0  0  0  0  0  0  0
   10.9990   16.1493   20.5198 C   0  0  0  0  0  0  0  0  0  0  0  0
   11.4895   14.9553   19.9737 C   0  0  0  0  0  0  0  0  0  0  0  0
   12.2531   14.0331   20.6402 O   0  0  0  0  0  0  0  0  0  0  0  0
   12.4655   14.1483   22.0464 C   0  0  0  0  0  0  0  0  0  0  0  0
   11.2172   13.8961   22.9213 C   0  0  0  0  0  0  0  0  0  0  0  0
   10.7682   14.7605   23.6508 O   0  0  0  0  0  0  0  0  0  0  0  0
   10.6880   12.6396   22.7880 N   0  0  0  0  0  0  0  0  0  0  0  0
    9.7797   11.9848   23.6336 C   0  0  0  0  0  0  0  0  0  0  0  0
    8.9152   12.6925   24.4395 C   0  0  0  0  0  0  0  0  0  0  0  0
    7.9609   12.0226   25.2522 C   0  0  0  0  0  0  0  0  0  0  0  0
    7.8844   10.6492   25.2286 C   0  0  0  0  0  0  0  0  0  0  0  0
    8.7663    9.8977   24.4056 C   0  0  0  0  0  0  0  0  0  0  0  0
    8.5800    8.5415   24.4053 N   0  0  0  0  0  0  0  0  0  0  0  0
    9.3692    7.8281   23.6708 C   0  0  0  0  0  0  0  0  0  0  0  0
    8.9842    6.1311   23.4984 Cl  0  0  0  0  0  0  0  0  0  0  0  0
   10.5021    8.3281   22.9684 C   0  0  0  0  0  0  0  0  0  0  0  0
   10.6895    9.6877   22.9375 C   0  0  0  0  0  0  0  0  0  0  0  0
    9.7706   10.5463   23.6255 C   0  0  0  0  0  0  0  0  0  0  0  0
   11.2129   14.6250   18.6395 C   0  0  0  0  0  0  0  0  0  0  0  0
  1  2  1  0
  2  3  2  0
  2  4  2  0
  2  5  1  0
  5  6  2  0
  6  7  1  0
  7  8  2  0
  8  9  1  0
  9 10  1  0
 10 11  1  0
 11 12  1  0
 12 13  2  0
 12 14  1  0
 14 15  1  0
 15 16  2  0
 16 17  1  0
 17 18  2  0
 18 19  1  0
 19 20  2  0
 20 21  1  0
 21 22  1  0
 21 23  2  0
 23 24  1  0
 24 25  2  0
  9 26  2  0
 26  5  1  0
 25 15  1  0
 25 19  1  0
M  END
>  <ref_pdb>  (32) 
x0554_0A

>  <ref_mols>  (32) 
x0554_0A,x0566_0A

>  <original SMILES>  (32) 
CS(=O)(=O)c1cccc(OCC(=O)Nc2cccc3nc(Cl)ccc23)c1

>  <IC50 (nM)>  (32) 
711.0170252443198

>  <CNNaffinity>  (32) 
6.14812

>  <rationale>  (32) 
-1

$$$$
PV_006736682031
     RDKit          3D

 26 29  0  0  0  0  0  0  0  0999 V2000
   10.4783   14.7045   23.5111 O   0  0  0  0  0  0  0  0  0  0  0  0
   11.0222   13.8503   22.8346 C   0  0  0  0  0  0  0  0  0  0  0  0
   10.6159   12.5372   22.8352 N   0  0  0  0  0  0  0  0  0  0  0  0
    9.7070   11.8944   23.6892 C   0  0  0  0  0  0  0  0  0  0  0  0
    8.8260   12.5887   24.4920 C   0  0  0  0  0  0  0  0  0  0  0  0
    7.8828   11.9002   25.3023 C   0  0  0  0  0  0  0  0  0  0  0  0
    7.8264   10.5265   25.2830 C   0  0  0  0  0  0  0  0  0  0  0  0
    8.7233    9.7888   24.4666 C   0  0  0  0  0  0  0  0  0  0  0  0
    8.5628    8.4296   24.4693 N   0  0  0  0  0  0  0  0  0  0  0  0
    9.3468    7.7322   23.7157 C   0  0  0  0  0  0  0  0  0  0  0  0
    8.9690    6.0351   23.5220 Cl  0  0  0  0  0  0  0  0  0  0  0  0
   10.4662    8.2524   23.0086 C   0  0  0  0  0  0  0  0  0  0  0  0
   10.6428    9.6126   22.9935 C   0  0  0  0  0  0  0  0  0  0  0  0
    9.7157   10.4549   23.6871 C   0  0  0  0  0  0  0  0  0  0  0  0
   12.2363   14.1653   21.8892 C   0  0  2  0  0  0  0  0  0  0  0  0
   12.9460   15.4582   22.3085 C   0  0  0  0  0  0  0  0  0  0  0  0
   13.6177   15.9805   21.0432 C   0  0  0  0  0  0  0  0  0  0  0  0
   13.1261   15.0833   19.8886 C   0  0  0  0  0  0  0  0  0  0  0  0
   12.0172   14.2587   20.4149 N   0  0  0  0  0  0  0  0  0  0  0  0
   10.7109   14.7072   19.9874 C   0  0  1  0  0  0  0  0  0  0  0  0
   10.4154   16.1971   20.2790 C   0  0  0  0  0  0  0  0  0  0  0  0
    9.3170   16.6274   19.3213 C   0  0  0  0  0  0  0  0  0  0  0  0
    9.4848   15.5931   17.8478 S   0  0  0  0  0  6  0  0  0  0  0  0
   10.1862   16.3577   16.8246 O   0  0  0  0  0  0  0  0  0  0  0  0
    8.2354   14.9142   17.5442 O   0  0  0  0  0  0  0  0  0  0  0  0
   10.5920   14.3969   18.5063 C   0  0  0  0  0  0  0  0  0  0  0  0
  1  2  2  0
  2  3  1  0
  3  4  1  0
  4  5  2  0
  5  6  1  0
  6  7  2  0
  7  8  1  0
  8  9  2  0
  9 10  1  0
 10 11  1  0
 10 12  2  0
 12 13  1  0
 13 14  2  0
 15  2  1  1
 15 16  1  0
 16 17  1  0
 17 18  1  0
 18 19  1  0
 20 19  1  6
 20 21  1  0
 21 22  1  0
 22 23  1  0
 23 24  2  0
 23 25  2  0
 23 26  1  0
 14  4  1  0
 19 15  1  0
 26 20  1  0
 14  8  1  0
M  END
>  <ref_pdb>  (33) 
x0554_0A

>  <ref_mols>  (33) 
x0554_0A,x0566_0A

>  <original SMILES>  (33) 
O=C(Nc1cccc2nc(Cl)ccc12)[C@@H]1CCCN1[C@H]1CCS(=O)(=O)C1

>  <IC50 (nM)>  (33) 
715.5170714370392

>  <CNNaffinity>  (33) 
6.14538

>  <rationale>  (33) 
-1

$$$$
Z4124596922
     RDKit          3D

 24 27  0  0  0  0  0  0  0  0999 V2000
    9.3675   16.4581   16.3183 C   0  0  0  0  0  0  0  0  0  0  0  0
    9.6221   16.1640   17.7796 C   0  0  2  0  0  0  0  0  0  0  0  0
    9.8494   17.2565   18.7850 C   0  0  0  0  0  0  0  0  0  0  0  0
   11.0179   16.4362   18.3089 C   0  0  1  0  0  0  0  0  0  0  0  0
   11.7024   15.4728   19.1997 C   0  0  0  0  0  0  0  0  0  0  0  0
   12.3591   14.4609   18.7031 N   0  0  0  0  0  0  0  0  0  0  0  0
   12.8168   13.7955   19.8311 O   0  0  0  0  0  0  0  0  0  0  0  0
   12.3955   14.4876   20.8829 C   0  0  0  0  0  0  0  0  0  0  0  0
   12.7198   14.0401   22.2503 C   0  0  0  0  0  0  0  0  0  0  0  0
   11.4039   13.8781   22.9727 C   0  0  0  0  0  0  0  0  0  0  0  0
   10.8975   14.7932   23.5806 O   0  0  0  0  0  0  0  0  0  0  0  0
   10.8584   12.6298   22.8244 N   0  0  0  0  0  0  0  0  0  0  0  0
    9.8619   12.0113   23.6009 C   0  0  0  0  0  0  0  0  0  0  0  0
    8.9652   12.7536   24.3391 C   0  0  0  0  0  0  0  0  0  0  0  0
    7.9668   12.1208   25.1293 C   0  0  0  0  0  0  0  0  0  0  0  0
    7.8662   10.7492   25.1450 C   0  0  0  0  0  0  0  0  0  0  0  0
    8.7623    9.9593   24.3763 C   0  0  0  0  0  0  0  0  0  0  0  0
    8.5511    8.6073   24.4107 N   0  0  0  0  0  0  0  0  0  0  0  0
    9.3238    7.8601   23.6925 C   0  0  0  0  0  0  0  0  0  0  0  0
    8.9150    6.1633   23.5731 Cl  0  0  0  0  0  0  0  0  0  0  0  0
   10.4547    8.3259   22.9662 C   0  0  0  0  0  0  0  0  0  0  0  0
   10.6798    9.6773   22.9140 C   0  0  0  0  0  0  0  0  0  0  0  0
    9.7984   10.5720   23.6037 C   0  0  0  0  0  0  0  0  0  0  0  0
   11.6914   15.5289   20.5796 N   0  0  0  0  0  0  0  0  0  0  0  0
  2  1  1  6
  2  3  1  0
  3  4  1  0
  4  5  1  1
  5  6  2  0
  6  7  1  0
  7  8  1  0
  8  9  1  0
  9 10  1  0
 10 11  2  0
 10 12  1  0
 12 13  1  0
 13 14  2  0
 14 15  1  0
 15 16  2  0
 16 17  1  0
 17 18  2  0
 18 19  1  0
 19 20  1  0
 19 21  2  0
 21 22  1  0
 22 23  2  0
  8 24  2  0
  4  2  1  0
 24  5  1  0
 23 13  1  0
 23 17  1  0
M  END
>  <ref_pdb>  (34) 
x0554_0A

>  <ref_mols>  (34) 
x0554_0A,x0566_0A

>  <original SMILES>  (34) 
C[C@@H]1C[C@H]1c1noc(CC(=O)Nc2cccc3nc(Cl)ccc23)n1

>  <IC50 (nM)>  (34) 
732.8414072416313

>  <CNNaffinity>  (34) 
6.13499

>  <rationale>  (34) 
-1

$$$$
Z4166552872
     RDKit          3D

 26 28  0  0  0  0  0  0  0  0999 V2000
   11.1316   14.9343   16.5671 O   0  0  0  0  0  0  0  0  0  0  0  0
   11.2962   15.0149   17.7658 C   0  0  0  0  0  0  0  0  0  0  0  0
   12.4342   15.7944   18.3918 C   0  0  0  0  0  0  0  0  0  0  0  0
   12.8120   15.3924   19.8382 C   0  0  0  0  0  0  0  0  0  0  0  0
   11.5849   15.0254   20.7254 C   0  0  1  0  0  0  0  0  0  0  0  0
   12.1300   14.4193   22.0772 C   0  0  0  0  0  0  0  0  0  0  0  0
   11.1267   13.9419   23.1305 C   0  0  0  0  0  0  0  0  0  0  0  0
   10.7595   14.6738   24.0256 O   0  0  0  0  0  0  0  0  0  0  0  0
   10.6785   12.6521   22.9822 N   0  0  0  0  0  0  0  0  0  0  0  0
    9.7424   11.9633   23.7733 C   0  0  0  0  0  0  0  0  0  0  0  0
    8.8230   12.6388   24.5501 C   0  0  0  0  0  0  0  0  0  0  0  0
    7.8506   11.9336   25.3105 C   0  0  0  0  0  0  0  0  0  0  0  0
    7.8066   10.5611   25.2777 C   0  0  0  0  0  0  0  0  0  0  0  0
    8.7293    9.8416   24.4749 C   0  0  0  0  0  0  0  0  0  0  0  0
    8.5686    8.4829   24.4625 N   0  0  0  0  0  0  0  0  0  0  0  0
    9.3568    7.7913   23.7093 C   0  0  0  0  0  0  0  0  0  0  0  0
    8.9830    6.0944   23.5077 Cl  0  0  0  0  0  0  0  0  0  0  0  0
   10.4671    8.3223   22.9975 C   0  0  0  0  0  0  0  0  0  0  0  0
   10.6435    9.6840   22.9942 C   0  0  0  0  0  0  0  0  0  0  0  0
    9.7354   10.5217   23.7205 C   0  0  0  0  0  0  0  0  0  0  0  0
   10.6873   16.2679   20.9721 C   0  0  0  0  0  0  0  0  0  0  0  0
   11.3476   17.2072   21.6849 F   0  0  0  0  0  0  0  0  0  0  0  0
    9.5759   15.9529   21.6609 F   0  0  0  0  0  0  0  0  0  0  0  0
   10.2824   16.8809   19.8486 F   0  0  0  0  0  0  0  0  0  0  0  0
   10.7818   13.9806   19.9314 C   0  0  0  0  0  0  0  0  0  0  0  0
   10.3739   14.4837   18.6298 N   0  0  0  0  0  0  0  0  0  0  0  0
  1  2  2  0
  2  3  1  0
  3  4  1  0
  4  5  1  0
  5  6  1  1
  6  7  1  0
  7  8  2  0
  7  9  1  0
  9 10  1  0
 10 11  2  0
 11 12  1  0
 12 13  2  0
 13 14  1  0
 14 15  2  0
 15 16  1  0
 16 17  1  0
 16 18  2  0
 18 19  1  0
 19 20  2  0
  5 21  1  0
 21 22  1  0
 21 23  1  0
 21 24  1  0
  5 25  1  0
 25 26  1  0
 26  2  1  0
 20 10  1  0
 20 14  1  0
M  END
>  <ref_pdb>  (35) 
x0554_0A

>  <ref_mols>  (35) 
x0554_0A,x0566_0A

>  <original SMILES>  (35) 
O=C1CC[C@@](CC(=O)Nc2cccc3nc(Cl)ccc23)(C(F)(F)F)CN1

>  <IC50 (nM)>  (35) 
732.9932916517788

>  <CNNaffinity>  (35) 
6.1349

>  <rationale>  (35) 
-1

$$$$
PV_002213099427
     RDKit          3D

 23 26  0  0  0  0  0  0  0  0999 V2000
   10.9000   14.7992   23.9318 O   0  0  0  0  0  0  0  0  0  0  0  0
   11.3530   14.0588   23.0783 C   0  0  0  0  0  0  0  0  0  0  0  0
   12.5132   14.5719   22.2252 C   0  0  0  0  0  0  0  0  0  0  0  0
   12.1175   14.7717   20.8526 N   0  0  0  0  0  0  0  0  0  0  0  0
   11.6887   15.9017   20.2408 C   0  0  0  0  0  0  0  0  0  0  0  0
   11.1961   15.5381   19.0041 C   0  0  0  0  0  0  0  0  0  0  0  0
   10.5728   16.3616   17.9448 C   0  0  0  0  0  0  0  0  0  0  0  0
   10.5792   15.9131   16.5005 C   0  0  0  0  0  0  0  0  0  0  0  0
    9.3084   15.8610   17.2884 C   0  0  0  0  0  0  0  0  0  0  0  0
   11.3453   14.1301   19.0030 C   0  0  0  0  0  0  0  0  0  0  0  0
   11.8927   13.6847   20.1208 N   0  0  0  0  0  0  0  0  0  0  0  0
   10.8990   12.7846   22.8301 N   0  0  0  0  0  0  0  0  0  0  0  0
    9.9125   12.0928   23.5725 C   0  0  0  0  0  0  0  0  0  0  0  0
    8.9886   12.8012   24.3161 C   0  0  0  0  0  0  0  0  0  0  0  0
    7.9852   12.1488   25.0750 C   0  0  0  0  0  0  0  0  0  0  0  0
    7.8996   10.7815   25.0741 C   0  0  0  0  0  0  0  0  0  0  0  0
    8.8114   10.0209   24.2996 C   0  0  0  0  0  0  0  0  0  0  0  0
    8.5964    8.6711   24.3275 N   0  0  0  0  0  0  0  0  0  0  0  0
    9.3864    7.9208   23.6356 C   0  0  0  0  0  0  0  0  0  0  0  0
    8.9652    6.2258   23.5192 Cl  0  0  0  0  0  0  0  0  0  0  0  0
   10.5297    8.3910   22.9339 C   0  0  0  0  0  0  0  0  0  0  0  0
   10.7537    9.7482   22.8771 C   0  0  0  0  0  0  0  0  0  0  0  0
    9.8599   10.6484   23.5479 C   0  0  0  0  0  0  0  0  0  0  0  0
  1  2  2  0
  2  3  1  0
  3  4  1  0
  4  5  1  0
  5  6  2  0
  6  7  1  0
  7  8  1  0
  8  9  1  0
  6 10  1  0
 10 11  2  0
  2 12  1  0
 12 13  1  0
 13 14  2  0
 14 15  1  0
 15 16  2  0
 16 17  1  0
 17 18  2  0
 18 19  1  0
 19 20  1  0
 19 21  2  0
 21 22  1  0
 22 23  2  0
 11  4  1  0
 23 13  1  0
  9  7  1  0
 23 17  1  0
M  END
>  <ref_pdb>  (36) 
x0554_0A

>  <ref_mols>  (36) 
x0554_0A,x0566_0A

>  <original SMILES>  (36) 
O=C(Cn1cc(C2CC2)cn1)Nc1cccc2nc(Cl)ccc12

>  <IC50 (nM)>  (36) 
738.329124231809

>  <CNNaffinity>  (36) 
6.13175

>  <rationale>  (36) 
-1

$$$$
PV_002408898578
     RDKit          3D

 24 27  0  0  0  0  0  0  0  0999 V2000
   10.7750   14.7922   23.3925 O   0  0  0  0  0  0  0  0  0  0  0  0
   11.2615   13.8562   22.7897 C   0  0  0  0  0  0  0  0  0  0  0  0
   12.5416   13.9957   21.9992 C   0  0  0  0  0  0  0  0  0  0  0  0
   12.1660   14.3357   20.6074 C   0  0  0  0  0  0  0  0  0  0  0  0
   12.4450   13.5226   19.6122 N   0  0  0  0  0  0  0  0  0  0  0  0
   11.9878   14.1219   18.4888 N   0  0  0  0  0  0  0  0  0  0  0  0
   11.3737   15.3079   18.7509 C   0  0  0  0  0  0  0  0  0  0  0  0
   10.7774   16.2595   17.8987 C   0  0  0  0  0  0  0  0  0  0  0  0
   10.2054   17.3736   18.4934 C   0  0  0  0  0  0  0  0  0  0  0  0
   10.2276   17.5460   19.9095 C   0  0  0  0  0  0  0  0  0  0  0  0
   10.8196   16.6108   20.7422 C   0  0  0  0  0  0  0  0  0  0  0  0
   11.4417   15.4844   20.1438 C   0  0  0  0  0  0  0  0  0  0  0  0
   10.7154   12.6073   22.7113 N   0  0  0  0  0  0  0  0  0  0  0  0
    9.8063   11.9869   23.5766 C   0  0  0  0  0  0  0  0  0  0  0  0
    8.9605   12.7165   24.3830 C   0  0  0  0  0  0  0  0  0  0  0  0
    8.0053   12.0638   25.2095 C   0  0  0  0  0  0  0  0  0  0  0  0
    7.9087   10.6915   25.1985 C   0  0  0  0  0  0  0  0  0  0  0  0
    8.7752    9.9207   24.3770 C   0  0  0  0  0  0  0  0  0  0  0  0
    8.5774    8.5659   24.3904 N   0  0  0  0  0  0  0  0  0  0  0  0
    9.3657    7.8368   23.6708 C   0  0  0  0  0  0  0  0  0  0  0  0
    8.9703    6.1399   23.5181 Cl  0  0  0  0  0  0  0  0  0  0  0  0
   10.5065    8.3184   22.9680 C   0  0  0  0  0  0  0  0  0  0  0  0
   10.6999    9.6753   22.9156 C   0  0  0  0  0  0  0  0  0  0  0  0
    9.7841   10.5492   23.5888 C   0  0  0  0  0  0  0  0  0  0  0  0
  1  2  2  0
  2  3  1  0
  3  4  1  0
  4  5  2  0
  5  6  1  0
  6  7  1  0
  7  8  2  0
  8  9  1  0
  9 10  2  0
 10 11  1  0
 11 12  2  0
  2 13  1  0
 13 14  1  0
 14 15  2  0
 15 16  1  0
 16 17  2  0
 17 18  1  0
 18 19  2  0
 19 20  1  0
 20 21  1  0
 20 22  2  0
 22 23  1  0
 23 24  2  0
 12  4  1  0
 24 14  1  0
 12  7  1  0
 24 18  1  0
M  END
>  <ref_pdb>  (37) 
x0554_0A

>  <ref_mols>  (37) 
x0554_0A,x0566_0A

>  <original SMILES>  (37) 
O=C(Cc1n[nH]c2ccccc12)Nc1cccc2nc(Cl)ccc12

>  <IC50 (nM)>  (37) 
738.5161551366808

>  <CNNaffinity>  (37) 
6.13164

>  <rationale>  (37) 
-1

$$$$
Z4136613501
     RDKit          3D

 27 30  0  0  0  0  0  0  0  0999 V2000
   10.1180   14.4793   23.2374 O   0  0  0  0  0  0  0  0  0  0  0  0
   10.6378   13.5367   22.6717 C   0  0  0  0  0  0  0  0  0  0  0  0
   10.1137   12.2745   22.6714 N   0  0  0  0  0  0  0  0  0  0  0  0
    9.3385   11.6530   23.6538 C   0  0  0  0  0  0  0  0  0  0  0  0
    8.4675   12.3566   24.4542 C   0  0  0  0  0  0  0  0  0  0  0  0
    7.6455   11.6772   25.3956 C   0  0  0  0  0  0  0  0  0  0  0  0
    7.7055   10.3058   25.4990 C   0  0  0  0  0  0  0  0  0  0  0  0
    8.5843    9.5637   24.6664 C   0  0  0  0  0  0  0  0  0  0  0  0
    8.4967    8.2006   24.7589 N   0  0  0  0  0  0  0  0  0  0  0  0
    9.2140    7.5025   23.9418 C   0  0  0  0  0  0  0  0  0  0  0  0
    8.8525    5.7954   23.8202 Cl  0  0  0  0  0  0  0  0  0  0  0  0
   10.2605    8.0242   23.1288 C   0  0  0  0  0  0  0  0  0  0  0  0
   10.3842    9.3845   23.0448 C   0  0  0  0  0  0  0  0  0  0  0  0
    9.4662   10.2245   23.7622 C   0  0  0  0  0  0  0  0  0  0  0  0
   11.9470   13.6223   21.8960 C   0  0  2  0  0  0  0  0  0  0  0  0
   13.0144   14.3833   22.7317 C   0  0  0  0  0  0  0  0  0  0  0  0
   13.4109   15.6560   21.9804 C   0  0  0  0  0  0  0  0  0  0  0  0
   12.0940   16.3970   21.7531 C   0  0  0  0  0  0  0  0  0  0  0  0
   11.3671   15.6923   20.6807 N   0  0  0  0  0  0  0  0  0  0  0  0
   10.5905   16.3904   19.8263 C   0  0  0  0  0  0  0  0  0  0  0  0
   10.3022   15.9333   18.5654 C   0  0  0  0  0  0  0  0  0  0  0  0
    9.5030   16.7447   17.7261 C   0  0  0  0  0  0  0  0  0  0  0  0
    9.1866   16.5591   16.5675 O   0  0  0  0  0  0  0  0  0  0  0  0
    9.0003   17.9095   18.3213 N   0  0  0  0  0  0  0  0  0  0  0  0
    9.3250   18.2771   19.5667 C   0  0  0  0  0  0  0  0  0  0  0  0
   10.1288   17.5948   20.3075 N   0  0  0  0  0  0  0  0  0  0  0  0
   11.6202   14.2575   20.5210 C   0  0  0  0  0  0  0  0  0  0  0  0
  1  2  2  0
  2  3  1  0
  3  4  1  0
  4  5  2  0
  5  6  1  0
  6  7  2  0
  7  8  1  0
  8  9  2  0
  9 10  1  0
 10 11  1  0
 10 12  2  0
 12 13  1  0
 13 14  2  0
 15  2  1  1
 15 16  1  0
 16 17  1  0
 17 18  1  0
 18 19  1  0
 19 20  1  0
 20 21  2  0
 21 22  1  0
 22 23  2  0
 22 24  1  0
 24 25  1  0
 25 26  2  0
 19 27  1  0
 14  4  1  0
 27 15  1  0
 14  8  1  0
 26 20  1  0
M  END
>  <ref_pdb>  (38) 
x0554_0A

>  <ref_mols>  (38) 
x0554_0A,x0566_0A

>  <original SMILES>  (38) 
O=C(Nc1cccc2nc(Cl)ccc12)[C@@H]1CCCN(c2cc(=O)[nH]cn2)C1

>  <IC50 (nM)>  (38) 
744.6976785208473

>  <CNNaffinity>  (38) 
6.12802

>  <rationale>  (38) 
-1

$$$$
Z3207006425
     RDKit          3D

 24 27  0  0  0  0  0  0  0  0999 V2000
   11.0658   14.6053   23.6690 O   0  0  0  0  0  0  0  0  0  0  0  0
   11.3890   13.7408   22.8773 C   0  0  0  0  0  0  0  0  0  0  0  0
   12.4757   14.0000   21.8653 C   0  0  0  0  0  0  0  0  0  0  0  0
   11.8433   14.7445   20.7544 C   0  0  0  0  0  0  0  0  0  0  0  0
   11.1991   15.9462   20.8354 C   0  0  0  0  0  0  0  0  0  0  0  0
   10.7446   16.2029   19.5687 N   0  0  0  0  0  0  0  0  0  0  0  0
    9.9987   17.3636   19.0939 C   0  0  0  0  0  0  0  0  0  0  0  0
   10.3270   17.5976   17.6137 C   0  0  0  0  0  0  0  0  0  0  0  0
   10.0235   16.3160   16.8147 C   0  0  0  0  0  0  0  0  0  0  0  0
   10.8720   15.1268   17.3165 C   0  0  0  0  0  0  0  0  0  0  0  0
   11.1169   15.1378   18.7966 C   0  0  0  0  0  0  0  0  0  0  0  0
   11.7738   14.2337   19.4902 N   0  0  0  0  0  0  0  0  0  0  0  0
   10.8017   12.5148   22.7776 N   0  0  0  0  0  0  0  0  0  0  0  0
    9.8783   11.9306   23.6575 C   0  0  0  0  0  0  0  0  0  0  0  0
    9.0395   12.6960   24.4406 C   0  0  0  0  0  0  0  0  0  0  0  0
    8.0286   12.0845   25.2275 C   0  0  0  0  0  0  0  0  0  0  0  0
    7.8788   10.7164   25.2161 C   0  0  0  0  0  0  0  0  0  0  0  0
    8.7610    9.9061   24.4490 C   0  0  0  0  0  0  0  0  0  0  0  0
    8.5347    8.5563   24.4797 N   0  0  0  0  0  0  0  0  0  0  0  0
    9.3079    7.8004   23.7712 C   0  0  0  0  0  0  0  0  0  0  0  0
    8.8669    6.1140   23.6233 Cl  0  0  0  0  0  0  0  0  0  0  0  0
   10.4643    8.2450   23.0702 C   0  0  0  0  0  0  0  0  0  0  0  0
   10.7102    9.5952   23.0298 C   0  0  0  0  0  0  0  0  0  0  0  0
    9.8107   10.4957   23.6858 C   0  0  0  0  0  0  0  0  0  0  0  0
  1  2  2  0
  2  3  1  0
  3  4  1  0
  4  5  2  0
  5  6  1  0
  6  7  1  0
  7  8  1  0
  8  9  1  0
  9 10  1  0
 10 11  1  0
 11 12  2  0
  2 13  1  0
 13 14  1  0
 14 15  2  0
 15 16  1  0
 16 17  2  0
 17 18  1  0
 18 19  2  0
 19 20  1  0
 20 21  1  0
 20 22  2  0
 22 23  1  0
 23 24  2  0
 12  4  1  0
 24 14  1  0
 11  6  1  0
 24 18  1  0
M  END
>  <ref_pdb>  (39) 
x0554_0A

>  <ref_mols>  (39) 
x0554_0A,x0566_0A

>  <original SMILES>  (39) 
O=C(Cc1cn2c(n1)CCCC2)Nc1cccc2nc(Cl)ccc12

>  <IC50 (nM)>  (39) 
745.1607995054248

>  <CNNaffinity>  (39) 
6.12775

>  <rationale>  (39) 
-1

$$$$
PV_002228967748
     RDKit          3D

 23 25  0  0  0  0  0  0  0  0999 V2000
    9.5841   15.9042   17.5711 C   0  0  0  0  0  0  0  0  0  0  0  0
   11.0484   16.2910   17.8027 C   0  0  2  0  0  0  0  0  0  0  0  0
   11.7557   16.2848   16.5734 O   0  0  0  0  0  0  0  0  0  0  0  0
   11.6760   15.4324   18.8817 C   0  0  0  0  0  0  0  0  0  0  0  0
   11.7199   15.5992   20.2472 C   0  0  0  0  0  0  0  0  0  0  0  0
   12.3479   14.4940   20.6995 N   0  0  0  0  0  0  0  0  0  0  0  0
   12.6677   14.1758   22.0772 C   0  0  0  0  0  0  0  0  0  0  0  0
   11.4019   13.9390   22.8911 C   0  0  0  0  0  0  0  0  0  0  0  0
   10.9629   14.8004   23.6281 O   0  0  0  0  0  0  0  0  0  0  0  0
   10.8275   12.7139   22.6833 N   0  0  0  0  0  0  0  0  0  0  0  0
    9.8797   12.0729   23.5000 C   0  0  0  0  0  0  0  0  0  0  0  0
    9.0087   12.8137   24.2709 C   0  0  0  0  0  0  0  0  0  0  0  0
    8.0139   12.1863   25.0657 C   0  0  0  0  0  0  0  0  0  0  0  0
    7.9099   10.8154   25.0786 C   0  0  0  0  0  0  0  0  0  0  0  0
    8.7962   10.0262   24.2989 C   0  0  0  0  0  0  0  0  0  0  0  0
    8.5806    8.6749   24.3352 N   0  0  0  0  0  0  0  0  0  0  0  0
    9.3649    7.9247   23.6355 C   0  0  0  0  0  0  0  0  0  0  0  0
    8.9433    6.2327   23.5141 Cl  0  0  0  0  0  0  0  0  0  0  0  0
   10.5148    8.3832   22.9334 C   0  0  0  0  0  0  0  0  0  0  0  0
   10.7314    9.7366   22.8619 C   0  0  0  0  0  0  0  0  0  0  0  0
    9.8298   10.6347   23.5193 C   0  0  0  0  0  0  0  0  0  0  0  0
   12.6336   13.6658   19.6993 N   0  0  0  0  0  0  0  0  0  0  0  0
   12.2322   14.2206   18.6000 N   0  0  0  0  0  0  0  0  0  0  0  0
  2  1  1  6
  2  3  1  0
  2  4  1  0
  4  5  2  0
  5  6  1  0
  6  7  1  0
  7  8  1  0
  8  9  2  0
  8 10  1  0
 10 11  1  0
 11 12  2  0
 12 13  1  0
 13 14  2  0
 14 15  1  0
 15 16  2  0
 16 17  1  0
 17 18  1  0
 17 19  2  0
 19 20  1  0
 20 21  2  0
  6 22  1  0
 22 23  2  0
 23  4  1  0
 21 11  1  0
 21 15  1  0
M  END
>  <ref_pdb>  (40) 
x0554_0A

>  <ref_mols>  (40) 
x0554_0A,x0566_0A

>  <original SMILES>  (40) 
C[C@H](O)c1cn(CC(=O)Nc2cccc3nc(Cl)ccc23)nn1

>  <IC50 (nM)>  (40) 
749.8251447039386

>  <CNNaffinity>  (40) 
6.12504

>  <rationale>  (40) 
-1

$$$$
PV_002277134491
     RDKit          3D

 27 30  0  0  0  0  0  0  0  0999 V2000
   11.3313   16.0839   16.3801 C   0  0  0  0  0  0  0  0  0  0  0  0
   10.7071   16.9135   17.3842 N   0  0  0  0  0  0  0  0  0  0  0  0
    9.7241   17.8040   17.1065 N   0  0  0  0  0  0  0  0  0  0  0  0
    9.3138   18.2667   18.2729 C   0  0  0  0  0  0  0  0  0  0  0  0
   10.0250   17.6775   19.3252 C   0  0  0  0  0  0  0  0  0  0  0  0
   10.9253   16.8219   18.7156 C   0  0  0  0  0  0  0  0  0  0  0  0
   11.8579   16.0675   19.3551 N   0  0  0  0  0  0  0  0  0  0  0  0
   11.8217   16.1353   20.6533 C   0  0  0  0  0  0  0  0  0  0  0  0
   12.8256   15.3948   21.4931 C   0  0  0  0  0  0  0  0  0  0  0  0
   12.4013   13.9507   21.8386 C   0  0  0  0  0  0  0  0  0  0  0  0
   11.2041   13.7982   22.7764 C   0  0  0  0  0  0  0  0  0  0  0  0
   10.7641   14.7150   23.4515 O   0  0  0  0  0  0  0  0  0  0  0  0
   10.7011   12.5306   22.7783 N   0  0  0  0  0  0  0  0  0  0  0  0
    9.7916   11.9275   23.6521 C   0  0  0  0  0  0  0  0  0  0  0  0
    8.9354   12.6631   24.4438 C   0  0  0  0  0  0  0  0  0  0  0  0
    7.9586   12.0156   25.2493 C   0  0  0  0  0  0  0  0  0  0  0  0
    7.8651   10.6433   25.2517 C   0  0  0  0  0  0  0  0  0  0  0  0
    8.7516    9.8658   24.4585 C   0  0  0  0  0  0  0  0  0  0  0  0
    8.5520    8.5127   24.4872 N   0  0  0  0  0  0  0  0  0  0  0  0
    9.3157    7.7740   23.7519 C   0  0  0  0  0  0  0  0  0  0  0  0
    8.8929    6.0815   23.6167 Cl  0  0  0  0  0  0  0  0  0  0  0  0
   10.4448    8.2465   23.0263 C   0  0  0  0  0  0  0  0  0  0  0  0
   10.6597    9.6014   22.9828 C   0  0  0  0  0  0  0  0  0  0  0  0
    9.7641   10.4871   23.6694 C   0  0  0  0  0  0  0  0  0  0  0  0
   10.8771   16.8304   21.3522 N   0  0  0  0  0  0  0  0  0  0  0  0
    9.9567   17.6898   20.7545 C   0  0  0  0  0  0  0  0  0  0  0  0
    9.2144   18.3348   21.4565 O   0  0  0  0  0  0  0  0  0  0  0  0
  1  2  1  0
  2  3  1  0
  3  4  2  0
  4  5  1  0
  5  6  2  0
  6  7  1  0
  7  8  2  0
  8  9  1  0
  9 10  1  0
 10 11  1  0
 11 12  2  0
 11 13  1  0
 13 14  1  0
 14 15  2  0
 15 16  1  0
 16 17  2  0
 17 18  1  0
 18 19  2  0
 19 20  1  0
 20 21  1  0
 20 22  2  0
 22 23  1  0
 23 24  2  0
  8 25  1  0
 25 26  1  0
 26 27  2  0
  6  2  1  0
 24 14  1  0
 26  5  1  0
 24 18  1  0
M  END
>  <ref_pdb>  (41) 
x0554_0A

>  <ref_mols>  (41) 
x0554_0A,x0566_0A

>  <original SMILES>  (41) 
Cn1ncc2c(=O)[nH]c(CCC(=O)Nc3cccc4nc(Cl)ccc34)nc21

>  <IC50 (nM)>  (41) 
755.0400695437153

>  <CNNaffinity>  (41) 
6.12203

>  <rationale>  (41) 
-1

$$$$
Z3091962939
     RDKit          3D

 26 29  0  0  0  0  0  0  0  0999 V2000
   11.2256   14.4996   23.9669 O   0  0  0  0  0  0  0  0  0  0  0  0
   11.3998   13.8020   22.9886 C   0  0  0  0  0  0  0  0  0  0  0  0
   12.4023   14.2182   21.8617 C   0  0  0  0  0  0  0  0  0  0  0  0
   11.9047   14.4666   20.4914 N   0  0  0  0  0  0  0  0  0  0  0  0
   12.1029   13.6351   19.3877 C   0  0  0  0  0  0  0  0  0  0  0  0
   12.8854   12.7251   19.3013 O   0  0  0  0  0  0  0  0  0  0  0  0
   11.2527   14.0299   18.3912 N   0  0  0  0  0  0  0  0  0  0  0  0
   10.8591   15.4097   18.6029 C   0  0  0  0  0  0  0  0  0  0  0  0
    9.3514   15.6406   18.4825 C   0  0  0  0  0  0  0  0  0  0  0  0
    9.2184   17.1737   18.3524 C   0  0  0  0  0  0  0  0  0  0  0  0
   10.5601   17.6645   17.7644 C   0  0  0  0  0  0  0  0  0  0  0  0
   11.4120   16.3954   17.5633 C   0  0  0  0  0  0  0  0  0  0  0  0
   11.3361   15.6520   20.0576 C   0  0  0  0  0  0  0  0  0  0  0  0
   11.2299   16.6543   20.7258 O   0  0  0  0  0  0  0  0  0  0  0  0
   10.7948   12.5876   22.8106 N   0  0  0  0  0  0  0  0  0  0  0  0
    9.8702   11.9581   23.6657 C   0  0  0  0  0  0  0  0  0  0  0  0
    9.0020   12.6927   24.4447 C   0  0  0  0  0  0  0  0  0  0  0  0
    8.0004   12.0498   25.2205 C   0  0  0  0  0  0  0  0  0  0  0  0
    7.8879   10.6794   25.2034 C   0  0  0  0  0  0  0  0  0  0  0  0
    8.7770    9.8984   24.4186 C   0  0  0  0  0  0  0  0  0  0  0  0
    8.5592    8.5469   24.4246 N   0  0  0  0  0  0  0  0  0  0  0  0
    9.3403    7.8097   23.7054 C   0  0  0  0  0  0  0  0  0  0  0  0
    8.9338    6.1144   23.5591 Cl  0  0  0  0  0  0  0  0  0  0  0  0
   10.4825    8.2829   23.0000 C   0  0  0  0  0  0  0  0  0  0  0  0
   10.7049    9.6373   22.9688 C   0  0  0  0  0  0  0  0  0  0  0  0
    9.8135   10.5202   23.6580 C   0  0  0  0  0  0  0  0  0  0  0  0
  1  2  2  0
  2  3  1  0
  3  4  1  0
  4  5  1  0
  5  6  2  0
  5  7  1  0
  7  8  1  0
  8  9  1  0
  9 10  1  0
 10 11  1  0
 11 12  1  0
  8 13  1  0
 13 14  2  0
  2 15  1  0
 15 16  1  0
 16 17  2  0
 17 18  1  0
 18 19  2  0
 19 20  1  0
 20 21  2  0
 21 22  1  0
 22 23  1  0
 22 24  2  0
 24 25  1  0
 25 26  2  0
 13  4  1  0
 26 16  1  0
 12  8  1  0
 26 20  1  0
M  END
>  <ref_pdb>  (42) 
x0554_0A

>  <ref_mols>  (42) 
x0554_0A,x0566_0A

>  <original SMILES>  (42) 
O=C(CN1C(=O)NC2(CCCC2)C1=O)Nc1cccc2nc(Cl)ccc12

>  <IC50 (nM)>  (42) 
755.5966086379126

>  <CNNaffinity>  (42) 
6.12171

>  <rationale>  (42) 
-1

$$$$
PV_007022958572
     RDKit          3D

 27 30  0  0  0  0  0  0  0  0999 V2000
   12.9008   12.6653   19.1700 N   0  0  0  0  0  0  0  0  0  0  0  0
   12.1876   13.8801   19.1768 C   0  0  0  0  0  0  0  0  0  0  0  0
   11.5701   14.5769   18.1767 C   0  0  0  0  0  0  0  0  0  0  0  0
   10.9896   15.6857   18.8304 C   0  0  0  0  0  0  0  0  0  0  0  0
   10.2022   16.7854   18.2212 C   0  0  0  0  0  0  0  0  0  0  0  0
    9.8524   16.7712   16.8562 C   0  0  0  0  0  0  0  0  0  0  0  0
    9.1294   17.8267   16.2996 C   0  0  0  0  0  0  0  0  0  0  0  0
    8.7316   18.9000   17.1020 C   0  0  0  0  0  0  0  0  0  0  0  0
    9.0700   18.9225   18.4577 C   0  0  0  0  0  0  0  0  0  0  0  0
    9.8081   17.8797   19.0124 C   0  0  0  0  0  0  0  0  0  0  0  0
   11.2585   15.6727   20.1378 N   0  0  0  0  0  0  0  0  0  0  0  0
   12.0076   14.5771   20.3285 N   0  0  0  0  0  0  0  0  0  0  0  0
   12.5709   14.3107   21.6330 C   0  0  0  0  0  0  0  0  0  0  0  0
   11.4753   14.0371   22.6394 C   0  0  0  0  0  0  0  0  0  0  0  0
   11.2001   14.8447   23.5048 O   0  0  0  0  0  0  0  0  0  0  0  0
   10.8634   12.8211   22.4983 N   0  0  0  0  0  0  0  0  0  0  0  0
    9.8986   12.2536   23.3469 C   0  0  0  0  0  0  0  0  0  0  0  0
    9.0360   13.0593   24.0585 C   0  0  0  0  0  0  0  0  0  0  0  0
    8.0050   12.5020   24.8595 C   0  0  0  0  0  0  0  0  0  0  0  0
    7.8637   11.1383   24.9430 C   0  0  0  0  0  0  0  0  0  0  0  0
    8.7416   10.2834   24.2271 C   0  0  0  0  0  0  0  0  0  0  0  0
    8.4865    8.9443   24.3430 N   0  0  0  0  0  0  0  0  0  0  0  0
    9.2544    8.1316   23.6947 C   0  0  0  0  0  0  0  0  0  0  0  0
    8.8082    6.4428   23.7132 Cl  0  0  0  0  0  0  0  0  0  0  0  0
   10.4048    8.5160   22.9499 C   0  0  0  0  0  0  0  0  0  0  0  0
   10.6728    9.8575   22.8182 C   0  0  0  0  0  0  0  0  0  0  0  0
    9.8044   10.8186   23.4329 C   0  0  0  0  0  0  0  0  0  0  0  0
  1  2  1  0
  2  3  2  0
  3  4  1  0
  4  5  1  0
  5  6  2  0
  6  7  1  0
  7  8  2  0
  8  9  1  0
  9 10  2  0
  4 11  2  0
 11 12  1  0
 12 13  1  0
 13 14  1  0
 14 15  2  0
 14 16  1  0
 16 17  1  0
 17 18  2  0
 18 19  1  0
 19 20  2  0
 20 21  1  0
 21 22  2  0
 22 23  1  0
 23 24  1  0
 23 25  2  0
 25 26  1  0
 26 27  2  0
 12  2  1  0
 27 17  1  0
 10  5  1  0
 27 21  1  0
M  END
>  <ref_pdb>  (43) 
x0554_0A

>  <ref_mols>  (43) 
x0554_0A,x0566_0A

>  <original SMILES>  (43) 
Nc1cc(-c2ccccc2)nn1CC(=O)Nc1cccc2nc(Cl)ccc12

>  <IC50 (nM)>  (43) 
758.2457766248447

>  <CNNaffinity>  (43) 
6.12019

>  <rationale>  (43) 
-1

$$$$
Z4124596915
     RDKit          3D

 24 27  0  0  0  0  0  0  0  0999 V2000
   12.3363   16.0513   17.6433 C   0  0  0  0  0  0  0  0  0  0  0  0
   11.6020   15.2159   18.6390 C   0  0  0  0  0  0  0  0  0  0  0  0
   10.5211   14.3826   18.5061 C   0  0  0  0  0  0  0  0  0  0  0  0
   10.1314   13.8695   19.7183 N   0  0  0  0  0  0  0  0  0  0  0  0
   10.9564   14.3886   20.5769 C   0  0  0  0  0  0  0  0  0  0  0  0
   11.0698   14.0579   22.0206 C   0  0  2  0  0  0  0  0  0  0  0  0
    9.7146   13.6629   22.5525 C   0  0  0  0  0  0  0  0  0  0  0  0
    8.7938   14.4345   22.7136 O   0  0  0  0  0  0  0  0  0  0  0  0
    9.6809   12.3232   22.8428 N   0  0  0  0  0  0  0  0  0  0  0  0
    8.9796   11.6076   23.8045 C   0  0  0  0  0  0  0  0  0  0  0  0
    8.0799   12.2030   24.6598 C   0  0  0  0  0  0  0  0  0  0  0  0
    7.3859   11.4199   25.6217 C   0  0  0  0  0  0  0  0  0  0  0  0
    7.5843   10.0600   25.6818 C   0  0  0  0  0  0  0  0  0  0  0  0
    8.4796    9.4288   24.7776 C   0  0  0  0  0  0  0  0  0  0  0  0
    8.5013    8.0586   24.8027 N   0  0  0  0  0  0  0  0  0  0  0  0
    9.2141    7.4619   23.9057 C   0  0  0  0  0  0  0  0  0  0  0  0
    8.9289    5.7528   23.6586 Cl  0  0  0  0  0  0  0  0  0  0  0  0
   10.1840    8.1007   23.0829 C   0  0  0  0  0  0  0  0  0  0  0  0
   10.2070    9.4692   23.0708 C   0  0  0  0  0  0  0  0  0  0  0  0
    9.2550   10.1974   23.8637 C   0  0  0  0  0  0  0  0  0  0  0  0
   11.8293   15.1383   22.8092 C   0  0  0  0  0  0  0  0  0  0  0  0
   13.1874   15.2128   22.1079 C   0  0  0  0  0  0  0  0  0  0  0  0
   13.0475   15.7590   20.6888 C   0  0  0  0  0  0  0  0  0  0  0  0
   11.8980   15.1854   19.9854 N   0  0  0  0  0  0  0  0  0  0  0  0
  1  2  1  0
  2  3  2  0
  3  4  1  0
  4  5  2  0
  5  6  1  0
  6  7  1  1
  7  8  2  0
  7  9  1  0
  9 10  1  0
 10 11  2  0
 11 12  1  0
 12 13  2  0
 13 14  1  0
 14 15  2  0
 15 16  1  0
 16 17  1  0
 16 18  2  0
 18 19  1  0
 19 20  2  0
  6 21  1  0
 21 22  1  0
 22 23  1  0
 23 24  1  0
 24  2  1  0
 24  5  1  0
 20 10  1  0
 20 14  1  0
M  END
>  <ref_pdb>  (44) 
x0554_0A

>  <ref_mols>  (44) 
x0554_0A,x0566_0A

>  <original SMILES>  (44) 
Cc1cnc2n1CCC[C@H]2C(=O)Nc1cccc2nc(Cl)ccc12

>  <IC50 (nM)>  (44) 
760.2737572756341

>  <CNNaffinity>  (44) 
6.11903

>  <rationale>  (44) 
-1

$$$$
PV_007046224659
     RDKit          3D

 23 25  0  0  0  0  0  0  0  0999 V2000
   10.8267   14.7875   23.4567 O   0  0  0  0  0  0  0  0  0  0  0  0
   11.2770   13.8854   22.7753 C   0  0  0  0  0  0  0  0  0  0  0  0
   12.4453   14.1220   21.7999 C   0  0  0  0  0  0  0  0  0  0  0  0
   12.0606   14.7678   20.4731 C   0  0  0  0  0  0  0  0  0  0  0  0
   11.5148   15.9938   20.4114 C   0  0  0  0  0  0  0  0  0  0  0  0
   11.0974   16.4769   19.1813 N   0  0  0  0  0  0  0  0  0  0  0  0
   11.1209   15.6763   18.0812 C   0  0  0  0  0  0  0  0  0  0  0  0
   10.3318   16.2951   16.6444 S   0  0  0  0  0  0  0  0  0  0  0  0
   11.6300   14.5125   18.0286 N   0  0  0  0  0  0  0  0  0  0  0  0
   12.2238   14.0072   19.1915 C   0  0  0  0  0  0  0  0  0  0  0  0
   12.8249   12.9558   19.1624 O   0  0  0  0  0  0  0  0  0  0  0  0
   10.8187   12.5977   22.7772 N   0  0  0  0  0  0  0  0  0  0  0  0
    9.8767   11.9993   23.6254 C   0  0  0  0  0  0  0  0  0  0  0  0
    9.0213   12.7418   24.4092 C   0  0  0  0  0  0  0  0  0  0  0  0
    8.0279   12.0995   25.1986 C   0  0  0  0  0  0  0  0  0  0  0  0
    7.9018   10.7284   25.1838 C   0  0  0  0  0  0  0  0  0  0  0  0
    8.7805    9.9408   24.3928 C   0  0  0  0  0  0  0  0  0  0  0  0
    8.5694    8.5862   24.4074 N   0  0  0  0  0  0  0  0  0  0  0  0
    9.3498    7.8508   23.6844 C   0  0  0  0  0  0  0  0  0  0  0  0
    8.9531    6.1513   23.5387 Cl  0  0  0  0  0  0  0  0  0  0  0  0
   10.4837    8.3290   22.9706 C   0  0  0  0  0  0  0  0  0  0  0  0
   10.7055    9.6821   22.9357 C   0  0  0  0  0  0  0  0  0  0  0  0
    9.8128   10.5615   23.6258 C   0  0  0  0  0  0  0  0  0  0  0  0
  1  2  2  0
  2  3  1  0
  3  4  1  0
  4  5  2  0
  5  6  1  0
  6  7  1  0
  7  8  1  0
  7  9  2  0
  9 10  1  0
 10 11  2  0
  2 12  1  0
 12 13  1  0
 13 14  2  0
 14 15  1  0
 15 16  2  0
 16 17  1  0
 17 18  2  0
 18 19  1  0
 19 20  1  0
 19 21  2  0
 21 22  1  0
 22 23  2  0
 10  4  1  0
 23 13  1  0
 23 17  1  0
M  END
>  <ref_pdb>  (45) 
x0554_0A

>  <ref_mols>  (45) 
x0554_0A,x0566_0A

>  <original SMILES>  (45) 
O=C(Cc1c[nH]c(S)nc1=O)Nc1cccc2nc(Cl)ccc12

>  <IC50 (nM)>  (45) 
760.8166354624144

>  <CNNaffinity>  (45) 
6.11872

>  <rationale>  (45) 
-1

$$$$
PV_002422132076
     RDKit          3D

 26 29  0  0  0  0  0  0  0  0999 V2000
   11.5565   16.7205   21.9352 C   0  0  0  0  0  0  0  0  0  0  0  0
   11.4820   15.8996   20.6951 C   0  0  0  0  0  0  0  0  0  0  0  0
   12.0219   14.6604   20.5319 C   0  0  0  0  0  0  0  0  0  0  0  0
   12.5289   13.8367   21.7208 C   0  0  0  0  0  0  0  0  0  0  0  0
   11.4937   13.5393   22.8191 C   0  0  0  0  0  0  0  0  0  0  0  0
   11.3404   14.2782   23.7745 O   0  0  0  0  0  0  0  0  0  0  0  0
   10.7559   12.4038   22.6139 N   0  0  0  0  0  0  0  0  0  0  0  0
    9.8589   11.8257   23.5301 C   0  0  0  0  0  0  0  0  0  0  0  0
    9.0543   12.6241   24.3144 C   0  0  0  0  0  0  0  0  0  0  0  0
    8.0751   12.0581   25.1728 C   0  0  0  0  0  0  0  0  0  0  0  0
    7.9310   10.6936   25.2430 C   0  0  0  0  0  0  0  0  0  0  0  0
    8.7672    9.8493   24.4660 C   0  0  0  0  0  0  0  0  0  0  0  0
    8.5344    8.5074   24.5849 N   0  0  0  0  0  0  0  0  0  0  0  0
    9.2613    7.7066   23.8784 C   0  0  0  0  0  0  0  0  0  0  0  0
    8.7877    6.0214   23.8485 Cl  0  0  0  0  0  0  0  0  0  0  0  0
   10.3864    8.1043   23.1022 C   0  0  0  0  0  0  0  0  0  0  0  0
   10.6323    9.4484   22.9651 C   0  0  0  0  0  0  0  0  0  0  0  0
    9.7762   10.3943   23.6152 C   0  0  0  0  0  0  0  0  0  0  0  0
   12.1294   14.0617   19.1744 C   0  0  0  0  0  0  0  0  0  0  0  0
   12.6891   13.0063   18.9809 O   0  0  0  0  0  0  0  0  0  0  0  0
   11.5107   14.8382   18.1289 N   0  0  0  0  0  0  0  0  0  0  0  0
   11.4486   14.5271   16.7937 N   0  0  0  0  0  0  0  0  0  0  0  0
   10.7483   15.5094   16.2637 C   0  0  0  0  0  0  0  0  0  0  0  0
   10.3354   16.4822   17.2027 C   0  0  0  0  0  0  0  0  0  0  0  0
   10.8436   16.0113   18.3772 C   0  0  0  0  0  0  0  0  0  0  0  0
   10.8040   16.5042   19.6575 N   0  0  0  0  0  0  0  0  0  0  0  0
  1  2  1  0
  2  3  2  0
  3  4  1  0
  4  5  1  0
  5  6  2  0
  5  7  1  0
  7  8  1  0
  8  9  2  0
  9 10  1  0
 10 11  2  0
 11 12  1  0
 12 13  2  0
 13 14  1  0
 14 15  1  0
 14 16  2  0
 16 17  1  0
 17 18  2  0
  3 19  1  0
 19 20  2  0
 19 21  1  0
 21 22  1  0
 22 23  2  0
 23 24  1  0
 24 25  2  0
 25 26  1  0
 26  2  1  0
 18  8  1  0
 25 21  1  0
 18 12  1  0
M  END
>  <ref_pdb>  (46) 
x0554_0A

>  <ref_mols>  (46) 
x0554_0A,x0566_0A

>  <original SMILES>  (46) 
Cc1[nH]c2ccnn2c(=O)c1CC(=O)Nc1cccc2nc(Cl)ccc12

>  <IC50 (nM)>  (46) 
763.0974459598457

>  <CNNaffinity>  (46) 
6.11742

>  <rationale>  (46) 
-1

$$$$
PV_002412377388
     RDKit          3D

 28 31  0  0  0  0  0  0  0  0999 V2000
   11.3732   14.3468   24.0084 O   0  0  0  0  0  0  0  0  0  0  0  0
   11.3914   13.8030   22.9184 C   0  0  0  0  0  0  0  0  0  0  0  0
   12.3141   14.3114   21.7750 C   0  0  0  0  0  0  0  0  0  0  0  0
   11.7184   15.1539   20.7149 N   0  0  0  0  0  0  0  0  0  0  0  0
   10.9646   14.6142   19.6863 C   0  0  0  0  0  0  0  0  0  0  0  0
   10.4933   13.4873   19.7301 O   0  0  0  0  0  0  0  0  0  0  0  0
   10.8032   15.4697   18.6248 N   0  0  0  0  0  0  0  0  0  0  0  0
   10.4567   14.8880   17.3206 C   0  0  0  0  0  0  0  0  0  0  0  0
   10.6004   15.9367   16.2082 C   0  0  0  0  0  0  0  0  0  0  0  0
    9.7603   17.1585   16.5243 C   0  0  0  0  0  0  0  0  0  0  0  0
    8.9754   17.8334   15.5890 C   0  0  0  0  0  0  0  0  0  0  0  0
    8.1080   18.8494   15.9978 C   0  0  0  0  0  0  0  0  0  0  0  0
    8.0759   19.2551   17.3359 C   0  0  0  0  0  0  0  0  0  0  0  0
    8.8981   18.6164   18.2722 C   0  0  0  0  0  0  0  0  0  0  0  0
    9.7531   17.5882   17.8659 C   0  0  0  0  0  0  0  0  0  0  0  0
   10.7671   16.9319   18.7821 C   0  0  0  0  0  0  0  0  0  0  0  0
   10.6733   12.6771   22.6169 N   0  0  0  0  0  0  0  0  0  0  0  0
    9.8060   12.0187   23.5184 C   0  0  0  0  0  0  0  0  0  0  0  0
    8.9723   12.7477   24.3398 C   0  0  0  0  0  0  0  0  0  0  0  0
    8.0042   12.1082   25.1593 C   0  0  0  0  0  0  0  0  0  0  0  0
    7.8972   10.7377   25.1541 C   0  0  0  0  0  0  0  0  0  0  0  0
    8.7706    9.9589   24.3488 C   0  0  0  0  0  0  0  0  0  0  0  0
    8.5731    8.6051   24.3808 N   0  0  0  0  0  0  0  0  0  0  0  0
    9.3610    7.8682   23.6681 C   0  0  0  0  0  0  0  0  0  0  0  0
    8.9620    6.1692   23.5339 Cl  0  0  0  0  0  0  0  0  0  0  0  0
   10.4965    8.3468   22.9558 C   0  0  0  0  0  0  0  0  0  0  0  0
   10.6937    9.7046   22.8851 C   0  0  0  0  0  0  0  0  0  0  0  0
    9.7811   10.5832   23.5511 C   0  0  0  0  0  0  0  0  0  0  0  0
  1  2  2  0
  2  3  1  0
  3  4  1  0
  4  5  1  0
  5  6  2  0
  5  7  1  0
  7  8  1  0
  8  9  1  0
  9 10  1  0
 10 11  2  0
 11 12  1  0
 12 13  2  0
 13 14  1  0
 14 15  2  0
 15 16  1  0
  2 17  1  0
 17 18  1  0
 18 19  2  0
 19 20  1  0
 20 21  2  0
 21 22  1  0
 22 23  2  0
 23 24  1  0
 24 25  1  0
 24 26  2  0
 26 27  1  0
 27 28  2  0
 16  7  1  0
 28 18  1  0
 15 10  1  0
 28 22  1  0
M  END
>  <ref_pdb>  (47) 
x0554_0A

>  <ref_mols>  (47) 
x0554_0A,x0566_0A

>  <original SMILES>  (47) 
O=C(CNC(=O)N1CCc2ccccc2C1)Nc1cccc2nc(Cl)ccc12

>  <IC50 (nM)>  (47) 
774.8898994862618

>  <CNNaffinity>  (47) 
6.11076

>  <rationale>  (47) 
-1

$$$$
PV_002493699698
     RDKit          3D

 27 30  0  0  0  0  0  0  0  0999 V2000
   10.4902   14.2730   16.1661 C   0  0  0  0  0  0  0  0  0  0  0  0
   10.5558   15.4109   17.1651 C   0  0  0  0  0  0  0  0  0  0  0  0
   10.1246   16.6903   16.8243 C   0  0  0  0  0  0  0  0  0  0  0  0
   10.0921   17.7457   17.7661 C   0  0  0  0  0  0  0  0  0  0  0  0
   10.4769   17.5088   19.0720 C   0  0  0  0  0  0  0  0  0  0  0  0
   11.0006   16.2521   19.4279 C   0  0  0  0  0  0  0  0  0  0  0  0
   11.0853   15.2153   18.4790 C   0  0  0  0  0  0  0  0  0  0  0  0
   11.7088   14.0150   18.8014 N   0  0  0  0  0  0  0  0  0  0  0  0
   12.2002   13.8587   19.9734 C   0  0  0  0  0  0  0  0  0  0  0  0
   12.0868   14.7429   21.0283 N   0  0  0  0  0  0  0  0  0  0  0  0
   12.4929   14.3929   22.4159 C   0  0  0  0  0  0  0  0  0  0  0  0
   11.4239   13.8729   23.4163 C   0  0  0  0  0  0  0  0  0  0  0  0
   11.2374   14.4318   24.4770 O   0  0  0  0  0  0  0  0  0  0  0  0
   10.7674   12.7342   23.0404 N   0  0  0  0  0  0  0  0  0  0  0  0
    9.8053   12.0521   23.8086 C   0  0  0  0  0  0  0  0  0  0  0  0
    8.8903   12.7409   24.5742 C   0  0  0  0  0  0  0  0  0  0  0  0
    7.8558   12.0510   25.2616 C   0  0  0  0  0  0  0  0  0  0  0  0
    7.7850   10.6781   25.2000 C   0  0  0  0  0  0  0  0  0  0  0  0
    8.7334    9.9451   24.4363 C   0  0  0  0  0  0  0  0  0  0  0  0
    8.5691    8.5860   24.4008 N   0  0  0  0  0  0  0  0  0  0  0  0
    9.3807    7.9033   23.6618 C   0  0  0  0  0  0  0  0  0  0  0  0
    9.0165    6.2077   23.4254 Cl  0  0  0  0  0  0  0  0  0  0  0  0
   10.5113    8.4397   22.9818 C   0  0  0  0  0  0  0  0  0  0  0  0
   10.6970    9.7992   23.0096 C   0  0  0  0  0  0  0  0  0  0  0  0
    9.7722   10.6212   23.7276 C   0  0  0  0  0  0  0  0  0  0  0  0
   11.5193   16.0138   20.7854 C   0  0  0  0  0  0  0  0  0  0  0  0
   11.4683   16.8410   21.6779 O   0  0  0  0  0  0  0  0  0  0  0  0
  1  2  1  0
  2  3  2  0
  3  4  1  0
  4  5  2  0
  5  6  1  0
  6  7  2  0
  7  8  1  0
  8  9  2  0
  9 10  1  0
 10 11  1  0
 11 12  1  0
 12 13  2  0
 12 14  1  0
 14 15  1  0
 15 16  2  0
 16 17  1  0
 17 18  2  0
 18 19  1  0
 19 20  2  0
 20 21  1  0
 21 22  1  0
 21 23  2  0
 23 24  1  0
 24 25  2  0
 10 26  1  0
 26 27  2  0
  7  2  1  0
 25 15  1  0
 26  6  1  0
 25 19  1  0
M  END
>  <ref_pdb>  (48) 
x0554_0A

>  <ref_mols>  (48) 
x0554_0A,x0566_0A

>  <original SMILES>  (48) 
Cc1cccc2c(=O)n(CC(=O)Nc3cccc4nc(Cl)ccc34)cnc12

>  <IC50 (nM)>  (48) 
782.3120144022507

>  <CNNaffinity>  (48) 
6.10662

>  <rationale>  (48) 
-1

$$$$
Z4410143804
     RDKit          3D

 24 26  0  0  0  0  0  0  0  0999 V2000
   12.9051   12.8475   21.6551 C   0  0  0  0  0  0  0  0  0  0  0  0
   12.1263   13.9913   21.7326 C   0  0  0  0  0  0  0  0  0  0  0  0
   13.0588   15.1321   22.3523 C   0  0  0  0  0  0  0  0  0  0  0  0
   11.4708   14.4329   20.3343 C   0  0  0  0  0  0  0  0  0  0  0  0
   12.4465   15.1122   19.3517 C   0  0  0  0  0  0  0  0  0  0  0  0
   11.8114   15.5388   18.0714 C   0  0  0  0  0  0  0  0  0  0  0  0
   11.5777   16.8019   17.7413 N   0  0  0  0  0  0  0  0  0  0  0  0
   10.9299   16.6518   16.6001 N   0  0  0  0  0  0  0  0  0  0  0  0
   10.7756   15.4077   16.2098 N   0  0  0  0  0  0  0  0  0  0  0  0
   11.3339   14.6832   17.1330 N   0  0  0  0  0  0  0  0  0  0  0  0
   10.9106   13.8272   22.8151 C   0  0  0  0  0  0  0  0  0  0  0  0
   10.5445   14.7304   23.5333 O   0  0  0  0  0  0  0  0  0  0  0  0
   10.3115   12.5905   22.7717 N   0  0  0  0  0  0  0  0  0  0  0  0
    9.5050   11.9599   23.7233 C   0  0  0  0  0  0  0  0  0  0  0  0
    8.6437   12.6658   24.5346 C   0  0  0  0  0  0  0  0  0  0  0  0
    7.7544   11.9831   25.4116 C   0  0  0  0  0  0  0  0  0  0  0  0
    7.7410   10.6092   25.4475 C   0  0  0  0  0  0  0  0  0  0  0  0
    8.6199    9.8630   24.6139 C   0  0  0  0  0  0  0  0  0  0  0  0
    8.4912    8.5019   24.6681 N   0  0  0  0  0  0  0  0  0  0  0  0
    9.2341    7.7942   23.8802 C   0  0  0  0  0  0  0  0  0  0  0  0
    8.8568    6.0902   23.7443 Cl  0  0  0  0  0  0  0  0  0  0  0  0
   10.3009    8.3099   23.0932 C   0  0  0  0  0  0  0  0  0  0  0  0
   10.4610    9.6707   23.0449 C   0  0  0  0  0  0  0  0  0  0  0  0
    9.5571   10.5224   23.7667 C   0  0  0  0  0  0  0  0  0  0  0  0
  1  2  1  0
  2  3  1  0
  2  4  1  0
  4  5  1  0
  5  6  1  0
  6  7  2  0
  7  8  1  0
  8  9  1  0
  9 10  2  0
  2 11  1  0
 11 12  2  0
 11 13  1  0
 13 14  1  0
 14 15  2  0
 15 16  1  0
 16 17  2  0
 17 18  1  0
 18 19  2  0
 19 20  1  0
 20 21  1  0
 20 22  2  0
 22 23  1  0
 23 24  2  0
 10  6  1  0
 24 14  1  0
 24 18  1  0
M  END
>  <ref_pdb>  (49) 
x0554_0A

>  <ref_mols>  (49) 
x0554_0A,x0566_0A

>  <original SMILES>  (49) 
CC(C)(CCc1nn[nH]n1)C(=O)Nc1cccc2nc(Cl)ccc12

>  <IC50 (nM)>  (49) 
794.2550777592473

>  <CNNaffinity>  (49) 
6.10004

>  <rationale>  (49) 
-1

$$$$
PV_002287476536
     RDKit          3D

 23 26  0  0  0  0  0  0  0  0999 V2000
    9.3296   13.9685   22.4763 O   0  0  0  0  0  0  0  0  0  0  0  0
   10.3306   13.2792   22.4029 C   0  0  0  0  0  0  0  0  0  0  0  0
   10.4834   12.1374   23.1368 N   0  0  0  0  0  0  0  0  0  0  0  0
    9.5279   11.5677   23.9941 C   0  0  0  0  0  0  0  0  0  0  0  0
    8.7237   12.3521   24.7891 C   0  0  0  0  0  0  0  0  0  0  0  0
    7.8615   11.7604   25.7511 C   0  0  0  0  0  0  0  0  0  0  0  0
    7.8109   10.3890   25.8825 C   0  0  0  0  0  0  0  0  0  0  0  0
    8.5783    9.5569   25.0212 C   0  0  0  0  0  0  0  0  0  0  0  0
    8.4009    8.2009   25.1539 N   0  0  0  0  0  0  0  0  0  0  0  0
    8.9569    7.4492   24.2593 C   0  0  0  0  0  0  0  0  0  0  0  0
    8.6176    5.7339   24.2603 Cl  0  0  0  0  0  0  0  0  0  0  0  0
    9.8202    7.9024   23.2256 C   0  0  0  0  0  0  0  0  0  0  0  0
   10.0604    9.2433   23.1155 C   0  0  0  0  0  0  0  0  0  0  0  0
    9.4340   10.1384   24.0355 C   0  0  0  0  0  0  0  0  0  0  0  0
   11.5561   13.6552   21.5400 C   0  0  2  0  0  0  0  0  0  0  0  0
   12.3305   14.7886   22.2761 C   0  0  0  0  0  0  0  0  0  0  0  0
   11.5518   16.1102   22.1898 C   0  0  0  0  0  0  0  0  0  0  0  0
   11.4736   16.5184   20.7172 C   0  0  0  0  0  0  0  0  0  0  0  0
   10.8933   15.4397   19.8507 C   0  0  0  0  0  0  0  0  0  0  0  0
   11.1083   14.1216   20.1749 C   0  0  0  0  0  0  0  0  0  0  0  0
   10.6417   13.4040   19.1189 N   0  0  0  0  0  0  0  0  0  0  0  0
   10.1310   14.1691   18.1404 N   0  0  0  0  0  0  0  0  0  0  0  0
   10.2835   15.4141   18.5811 C   0  0  0  0  0  0  0  0  0  0  0  0
  1  2  2  0
  2  3  1  0
  3  4  1  0
  4  5  2  0
  5  6  1  0
  6  7  2  0
  7  8  1  0
  8  9  2  0
  9 10  1  0
 10 11  1  0
 10 12  2  0
 12 13  1  0
 13 14  2  0
 15  2  1  1
 15 16  1  0
 16 17  1  0
 17 18  1  0
 18 19  1  0
 19 20  2  0
 20 21  1  0
 21 22  1  0
 22 23  2  0
 14  4  1  0
 20 15  1  0
 14  8  1  0
 23 19  1  0
M  END
>  <ref_pdb>  (50) 
x0554_0A

>  <ref_mols>  (50) 
x0554_0A,x0566_0A

>  <original SMILES>  (50) 
O=C(Nc1cccc2nc(Cl)ccc12)[C@@H]1CCCc2cn[nH]c21

>  <IC50 (nM)>  (50) 
796.7095078086489

>  <CNNaffinity>  (50) 
6.0987

>  <rationale>  (50) 
-1

$$$$
PV_006957826328
     RDKit          3D

 26 29  0  0  0  0  0  0  0  0999 V2000
   10.3340   14.6613   23.7610 O   0  0  0  0  0  0  0  0  0  0  0  0
   10.8398   13.8163   23.0460 C   0  0  0  0  0  0  0  0  0  0  0  0
   11.9775   14.1641   22.1284 C   0  0  0  0  0  0  0  0  0  0  0  0
   11.5765   15.1380   21.0031 C   0  0  1  0  0  0  0  0  0  0  0  0
   12.8644   15.5549   20.2797 C   0  0  0  0  0  0  0  0  0  0  0  0
   13.1381   14.7160   19.0419 C   0  0  0  0  0  0  0  0  0  0  0  0
   12.0561   14.9916   17.9803 C   0  0  0  0  0  0  0  0  0  0  0  0
   10.6008   15.0423   18.5677 C   0  0  2  0  0  0  0  0  0  0  0  0
    9.9958   16.4152   18.4064 C   0  0  0  0  0  0  0  0  0  0  0  0
    9.1763   16.7202   17.4048 N   0  0  0  0  0  0  0  0  0  0  0  0
    8.9492   18.0035   17.6416 N   0  0  0  0  0  0  0  0  0  0  0  0
    9.5647   18.4884   18.6911 N   0  0  0  0  0  0  0  0  0  0  0  0
   10.2435   17.4941   19.1897 N   0  0  0  0  0  0  0  0  0  0  0  0
   10.5390   14.5161   20.0284 C   0  0  0  0  0  0  0  0  0  0  0  0
   10.4495   12.5088   22.9935 N   0  0  0  0  0  0  0  0  0  0  0  0
    9.5673   11.8362   23.8370 C   0  0  0  0  0  0  0  0  0  0  0  0
    8.6599   12.5172   24.6215 C   0  0  0  0  0  0  0  0  0  0  0  0
    7.7118   11.8104   25.4060 C   0  0  0  0  0  0  0  0  0  0  0  0
    7.7069   10.4343   25.4063 C   0  0  0  0  0  0  0  0  0  0  0  0
    8.6442    9.7158   24.6152 C   0  0  0  0  0  0  0  0  0  0  0  0
    8.5256    8.3523   24.6277 N   0  0  0  0  0  0  0  0  0  0  0  0
    9.2864    7.6757   23.8336 C   0  0  0  0  0  0  0  0  0  0  0  0
    8.9166    5.9770   23.6291 Cl  0  0  0  0  0  0  0  0  0  0  0  0
   10.3685    8.2184   23.0855 C   0  0  0  0  0  0  0  0  0  0  0  0
   10.5318    9.5798   23.0894 C   0  0  0  0  0  0  0  0  0  0  0  0
    9.6153   10.4004   23.8271 C   0  0  0  0  0  0  0  0  0  0  0  0
  1  2  2  0
  2  3  1  0
  4  3  1  1
  4  5  1  0
  5  6  1  0
  6  7  1  0
  7  8  1  0
  8  9  1  1
  9 10  2  0
 10 11  1  0
 11 12  1  0
 12 13  2  0
  8 14  1  0
  2 15  1  0
 15 16  1  0
 16 17  2  0
 17 18  1  0
 18 19  2  0
 19 20  1  0
 20 21  2  0
 21 22  1  0
 22 23  1  0
 22 24  2  0
 24 25  1  0
 25 26  2  0
 14  4  1  0
 26 16  1  0
 13  9  1  0
 26 20  1  0
M  END
>  <ref_pdb>  (51) 
x0554_0A

>  <ref_mols>  (51) 
x0554_0A,x0566_0A

>  <original SMILES>  (51) 
O=C(C[C@H]1CCC[C@H](c2nn[nH]n2)C1)Nc1cccc2nc(Cl)ccc12

>  <IC50 (nM)>  (51) 
797.2416879869218

>  <CNNaffinity>  (51) 
6.09841

>  <rationale>  (51) 
-1

$$$$
PV_002149633512
     RDKit          3D

 28 31  0  0  0  0  0  0  0  0999 V2000
   11.6033   14.1144   23.6481 O   0  0  0  0  0  0  0  0  0  0  0  0
   11.5148   13.4718   22.6190 C   0  0  0  0  0  0  0  0  0  0  0  0
   12.3692   13.7437   21.4031 C   0  0  0  0  0  0  0  0  0  0  0  0
   12.7589   15.2116   21.2569 C   0  0  0  0  0  0  0  0  0  0  0  0
   11.7884   15.9268   20.4354 N   0  0  0  0  0  0  0  0  0  0  0  0
   11.7798   15.5358   19.0575 N   0  0  0  0  0  0  0  0  0  0  0  0
   11.2193   16.3247   18.0627 C   0  0  0  0  0  0  0  0  0  0  0  0
   11.5348   16.1068   16.9083 O   0  0  0  0  0  0  0  0  0  0  0  0
   10.2627   17.3757   18.5505 C   0  0  0  0  0  0  0  0  0  0  0  0
    9.6157   18.2077   17.6223 C   0  0  0  0  0  0  0  0  0  0  0  0
    8.7544   19.2071   18.0602 C   0  0  0  0  0  0  0  0  0  0  0  0
    8.5298   19.3950   19.4321 C   0  0  0  0  0  0  0  0  0  0  0  0
    9.1360   18.5596   20.3658 C   0  0  0  0  0  0  0  0  0  0  0  0
   10.0226   17.5526   19.9389 C   0  0  0  0  0  0  0  0  0  0  0  0
   10.7700   16.7220   20.9623 C   0  0  0  0  0  0  0  0  0  0  0  0
   10.5575   16.8026   22.1579 O   0  0  0  0  0  0  0  0  0  0  0  0
   10.7025   12.3866   22.4823 N   0  0  0  0  0  0  0  0  0  0  0  0
    9.8689   11.8551   23.4694 C   0  0  0  0  0  0  0  0  0  0  0  0
    9.1272   12.6771   24.2854 C   0  0  0  0  0  0  0  0  0  0  0  0
    8.1520   12.1309   25.1605 C   0  0  0  0  0  0  0  0  0  0  0  0
    7.9626   10.7671   25.2156 C   0  0  0  0  0  0  0  0  0  0  0  0
    8.7717    9.9012   24.4287 C   0  0  0  0  0  0  0  0  0  0  0  0
    8.5235    8.5600   24.5317 N   0  0  0  0  0  0  0  0  0  0  0  0
    9.2592    7.7548   23.8364 C   0  0  0  0  0  0  0  0  0  0  0  0
    8.7919    6.0692   23.8205 Cl  0  0  0  0  0  0  0  0  0  0  0  0
   10.3946    8.1454   23.0688 C   0  0  0  0  0  0  0  0  0  0  0  0
   10.6410    9.4864   22.9273 C   0  0  0  0  0  0  0  0  0  0  0  0
    9.7808   10.4301   23.5717 C   0  0  0  0  0  0  0  0  0  0  0  0
  1  2  2  0
  2  3  1  0
  3  4  1  0
  4  5  1  0
  5  6  1  0
  6  7  1  0
  7  8  2  0
  7  9  1  0
  9 10  2  0
 10 11  1  0
 11 12  2  0
 12 13  1  0
 13 14  2  0
 14 15  1  0
 15 16  2  0
  2 17  1  0
 17 18  1  0
 18 19  2  0
 19 20  1  0
 20 21  2  0
 21 22  1  0
 22 23  2  0
 23 24  1  0
 24 25  1  0
 24 26  2  0
 26 27  1  0
 27 28  2  0
 15  5  1  0
 28 18  1  0
 14  9  1  0
 28 22  1  0
M  END
>  <ref_pdb>  (52) 
x0554_0A

>  <ref_mols>  (52) 
x0554_0A,x0566_0A

>  <original SMILES>  (52) 
O=C(CCn1[nH]c(=O)c2ccccc2c1=O)Nc1cccc2nc(Cl)ccc12

>  <IC50 (nM)>  (52) 
798.8587565534727

>  <CNNaffinity>  (52) 
6.09753

>  <rationale>  (52) 
-1

$$$$
Z5091447983
     RDKit          3D

 24 27  0  0  0  0  0  0  0  0999 V2000
   11.0455   14.9720   16.4634 O   0  0  0  0  0  0  0  0  0  0  0  0
   11.1110   15.1633   17.6566 C   0  0  0  0  0  0  0  0  0  0  0  0
   12.3480   15.7254   18.3286 C   0  0  0  0  0  0  0  0  0  0  0  0
   12.6606   15.1232   19.7039 C   0  0  0  0  0  0  0  0  0  0  0  0
   11.4363   15.0239   20.6445 C   0  0  0  0  0  0  0  0  0  0  0  0
   11.7747   14.2749   21.9598 C   0  0  0  0  0  0  0  0  0  0  0  0
   10.5549   14.0120   22.8670 C   0  0  0  0  0  0  0  0  0  0  0  0
    9.9426   14.9018   23.4225 O   0  0  0  0  0  0  0  0  0  0  0  0
   10.2097   12.6829   22.9074 N   0  0  0  0  0  0  0  0  0  0  0  0
    9.4091   11.9821   23.8237 C   0  0  0  0  0  0  0  0  0  0  0  0
    8.5311   12.6527   24.6556 C   0  0  0  0  0  0  0  0  0  0  0  0
    7.6815   11.9240   25.5212 C   0  0  0  0  0  0  0  0  0  0  0  0
    7.7229   10.5457   25.5292 C   0  0  0  0  0  0  0  0  0  0  0  0
    8.6269    9.8471   24.6784 C   0  0  0  0  0  0  0  0  0  0  0  0
    8.5209    8.4763   24.6866 N   0  0  0  0  0  0  0  0  0  0  0  0
    9.2743    7.8099   23.8622 C   0  0  0  0  0  0  0  0  0  0  0  0
    8.9001    6.1058   23.6256 Cl  0  0  0  0  0  0  0  0  0  0  0  0
   10.3079    8.3364   23.0852 C   0  0  0  0  0  0  0  0  0  0  0  0
   10.4601    9.7694   22.9769 C   0  0  0  0  0  0  0  0  0  0  0  0
    9.5178   10.5657   23.8466 C   0  0  0  0  0  0  0  0  0  0  0  0
   12.8404   13.3584   22.0062 C   0  0  0  0  0  0  0  0  0  0  0  0
   13.1335   14.5697   22.7232 C   0  0  0  0  0  0  0  0  0  0  0  0
   10.2532   14.3364   19.9290 C   0  0  0  0  0  0  0  0  0  0  0  0
    9.9148   14.9965   18.5827 C   0  0  0  0  0  0  0  0  0  0  0  0
  1  2  2  0
  2  3  1  0
  3  4  1  0
  4  5  1  0
  5  6  1  0
  6  7  1  0
  7  8  2  0
  7  9  1  0
  9 10  1  0
 10 11  2  0
 11 12  1  0
 12 13  2  0
 13 14  1  0
 14 15  2  0
 15 16  1  0
 16 17  1  0
 16 18  2  0
 18 19  1  0
 19 20  2  0
  6 21  1  0
 21 22  1  0
  5 23  1  0
 23 24  1  0
 24  2  1  0
 22  6  1  0
 20 10  1  0
 20 14  1  0
M  END
>  <ref_pdb>  (53) 
x0554_0A

>  <ref_mols>  (53) 
x0554_0A,x0566_0A

>  <original SMILES>  (53) 
O=C1CCC(C2(C(=O)Nc3cccc4nc(Cl)ccc34)CC2)CC1

>  <IC50 (nM)>  (53) 
799.5580497438664

>  <CNNaffinity>  (53) 
6.09715

>  <rationale>  (53) 
-1

$$$$
PV_002494429063
     RDKit          3D

 26 28  0  0  0  0  0  0  0  0999 V2000
    8.1552   13.0727   16.1824 C   0  0  0  0  0  0  0  0  0  0  0  0
    8.8437   13.9967   16.5326 C   0  0  0  0  0  0  0  0  0  0  0  0
    9.5822   15.0652   17.1431 C   0  0  0  0  0  0  0  0  0  0  0  0
   10.2639   14.7769   18.3363 C   0  0  0  0  0  0  0  0  0  0  0  0
   10.7883   15.8204   19.0944 C   0  0  0  0  0  0  0  0  0  0  0  0
   11.4380   15.5648   20.3261 N   0  0  0  0  0  0  0  0  0  0  0  0
   12.1932   14.4463   20.5751 C   0  0  0  0  0  0  0  0  0  0  0  0
   12.5038   13.6124   19.7559 O   0  0  0  0  0  0  0  0  0  0  0  0
   12.5404   14.3041   22.0288 C   0  0  0  0  0  0  0  0  0  0  0  0
   11.1903   14.0350   22.6184 C   0  0  0  0  0  0  0  0  0  0  0  0
   10.4537   14.9664   22.9030 O   0  0  0  0  0  0  0  0  0  0  0  0
   10.8501   12.7161   22.6544 N   0  0  0  0  0  0  0  0  0  0  0  0
    9.9033   12.0781   23.4724 C   0  0  0  0  0  0  0  0  0  0  0  0
    9.0490   12.8253   24.2592 C   0  0  0  0  0  0  0  0  0  0  0  0
    8.0822   12.1995   25.0884 C   0  0  0  0  0  0  0  0  0  0  0  0
    7.9634   10.8308   25.0946 C   0  0  0  0  0  0  0  0  0  0  0  0
    8.8229   10.0355   24.2909 C   0  0  0  0  0  0  0  0  0  0  0  0
    8.5933    8.6865   24.3262 N   0  0  0  0  0  0  0  0  0  0  0  0
    9.3802    7.9304   23.6330 C   0  0  0  0  0  0  0  0  0  0  0  0
    8.9593    6.2397   23.5223 Cl  0  0  0  0  0  0  0  0  0  0  0  0
   10.5301    8.3796   22.9246 C   0  0  0  0  0  0  0  0  0  0  0  0
   10.7509    9.7316   22.8433 C   0  0  0  0  0  0  0  0  0  0  0  0
    9.8558   10.6371   23.5033 C   0  0  0  0  0  0  0  0  0  0  0  0
   10.6328   17.1415   18.6645 C   0  0  0  0  0  0  0  0  0  0  0  0
   10.0603   17.4197   17.4172 C   0  0  0  0  0  0  0  0  0  0  0  0
    9.5453   16.3781   16.6433 C   0  0  0  0  0  0  0  0  0  0  0  0
  1  2  3  0
  2  3  1  0
  3  4  2  0
  4  5  1  0
  5  6  1  0
  6  7  1  0
  7  8  2  0
  7  9  1  0
  9 10  1  0
 10 11  2  0
 10 12  1  0
 12 13  1  0
 13 14  2  0
 14 15  1  0
 15 16  2  0
 16 17  1  0
 17 18  2  0
 18 19  1  0
 19 20  1  0
 19 21  2  0
 21 22  1  0
 22 23  2  0
  5 24  2  0
 24 25  1  0
 25 26  2  0
 26  3  1  0
 23 13  1  0
 23 17  1  0
M  END
>  <ref_pdb>  (54) 
x0554_0A

>  <ref_mols>  (54) 
x0554_0A,x0566_0A

>  <original SMILES>  (54) 
C#Cc1cccc(NC(=O)CC(=O)Nc2cccc3nc(Cl)ccc23)c1

>  <IC50 (nM)>  (54) 
810.4570416954282

>  <CNNaffinity>  (54) 
6.09127

>  <rationale>  (54) 
-1

$$$$
Z4386726240
     RDKit          3D

 23 26  0  0  0  0  0  0  0  0999 V2000
   11.0086   14.7025   23.9023 O   0  0  0  0  0  0  0  0  0  0  0  0
   11.4000   13.9178   23.0631 C   0  0  0  0  0  0  0  0  0  0  0  0
   12.6164   14.2212   22.1844 C   0  0  0  0  0  0  0  0  0  0  0  0
   12.2889   14.4147   20.7775 N   0  0  0  0  0  0  0  0  0  0  0  0
   12.6681   13.5084   19.8663 N   0  0  0  0  0  0  0  0  0  0  0  0
   12.2975   13.9447   18.7194 N   0  0  0  0  0  0  0  0  0  0  0  0
   11.6500   15.1200   18.8372 N   0  0  0  0  0  0  0  0  0  0  0  0
   11.6361   15.4056   20.1202 C   0  0  0  0  0  0  0  0  0  0  0  0
   10.9312   16.5214   20.7884 C   0  0  0  0  0  0  0  0  0  0  0  0
    9.8390   17.2329   20.0363 C   0  0  0  0  0  0  0  0  0  0  0  0
    9.4791   16.3543   21.1930 C   0  0  0  0  0  0  0  0  0  0  0  0
   10.8439   12.6918   22.8044 N   0  0  0  0  0  0  0  0  0  0  0  0
    9.8725   12.0224   23.5749 C   0  0  0  0  0  0  0  0  0  0  0  0
    8.9749   12.7502   24.3285 C   0  0  0  0  0  0  0  0  0  0  0  0
    7.9828   12.1096   25.1156 C   0  0  0  0  0  0  0  0  0  0  0  0
    7.8849   10.7386   25.1158 C   0  0  0  0  0  0  0  0  0  0  0  0
    8.7832    9.9593   24.3387 C   0  0  0  0  0  0  0  0  0  0  0  0
    8.5721    8.6073   24.3615 N   0  0  0  0  0  0  0  0  0  0  0  0
    9.3603    7.8648   23.6548 C   0  0  0  0  0  0  0  0  0  0  0  0
    8.9528    6.1679   23.5328 Cl  0  0  0  0  0  0  0  0  0  0  0  0
   10.5027    8.3374   22.9497 C   0  0  0  0  0  0  0  0  0  0  0  0
   10.7196    9.6925   22.8960 C   0  0  0  0  0  0  0  0  0  0  0  0
    9.8221   10.5822   23.5731 C   0  0  0  0  0  0  0  0  0  0  0  0
  1  2  2  0
  2  3  1  0
  3  4  1  0
  4  5  1  0
  5  6  2  0
  6  7  1  0
  7  8  2  0
  8  9  1  0
  9 10  1  0
 10 11  1  0
  2 12  1  0
 12 13  1  0
 13 14  2  0
 14 15  1  0
 15 16  2  0
 16 17  1  0
 17 18  2  0
 18 19  1  0
 19 20  1  0
 19 21  2  0
 21 22  1  0
 22 23  2  0
  8  4  1  0
 11  9  1  0
 23 13  1  0
 23 17  1  0
M  END
>  <ref_pdb>  (55) 
x0554_0A

>  <ref_mols>  (55) 
x0554_0A,x0566_0A

>  <original SMILES>  (55) 
O=C(Cn1nnnc1C1CC1)Nc1cccc2nc(Cl)ccc12

>  <IC50 (nM)>  (55) 
810.6810101927208

>  <CNNaffinity>  (55) 
6.09115

>  <rationale>  (55) 
-1

$$$$
Z4410143808
     RDKit          3D

 23 25  0  0  0  0  0  0  0  0999 V2000
   13.6716   15.9639   21.4872 C   0  0  0  0  0  0  0  0  0  0  0  0
   12.6374   15.2971   22.3951 C   0  0  0  0  0  0  0  0  0  0  0  0
   12.0013   13.9480   21.7706 C   0  0  1  0  0  0  0  0  0  0  0  0
   12.9072   12.9097   21.9496 C   0  0  0  0  0  0  0  0  0  0  0  0
   10.5997   13.7687   22.5163 C   0  0  0  0  0  0  0  0  0  0  0  0
    9.9356   14.7087   22.8873 O   0  0  0  0  0  0  0  0  0  0  0  0
   10.2351   12.4587   22.6246 N   0  0  0  0  0  0  0  0  0  0  0  0
    9.4309   11.8501   23.5889 C   0  0  0  0  0  0  0  0  0  0  0  0
    8.5642   12.5724   24.3790 C   0  0  0  0  0  0  0  0  0  0  0  0
    7.7305   11.9084   25.3173 C   0  0  0  0  0  0  0  0  0  0  0  0
    7.7621   10.5363   25.4163 C   0  0  0  0  0  0  0  0  0  0  0  0
    8.6310    9.7738   24.5889 C   0  0  0  0  0  0  0  0  0  0  0  0
    8.5172    8.4130   24.6753 N   0  0  0  0  0  0  0  0  0  0  0  0
    9.2532    7.6991   23.8878 C   0  0  0  0  0  0  0  0  0  0  0  0
    8.8660    5.9982   23.7835 Cl  0  0  0  0  0  0  0  0  0  0  0  0
   10.3066    8.2060   23.0767 C   0  0  0  0  0  0  0  0  0  0  0  0
   10.4382    9.5652   22.9815 C   0  0  0  0  0  0  0  0  0  0  0  0
    9.5325   10.4204   23.6959 C   0  0  0  0  0  0  0  0  0  0  0  0
   11.5677   14.1152   20.3007 C   0  0  0  0  0  0  0  0  0  0  0  0
   10.3414   14.3853   19.8719 N   0  0  0  0  0  0  0  0  0  0  0  0
   10.5516   14.4852   18.5667 N   0  0  0  0  0  0  0  0  0  0  0  0
   11.7923   14.2867   18.1845 N   0  0  0  0  0  0  0  0  0  0  0  0
   12.4500   14.0373   19.2782 N   0  0  0  0  0  0  0  0  0  0  0  0
  1  2  1  0
  2  3  1  0
  3  4  1  6
  3  5  1  0
  5  6  2  0
  5  7  1  0
  7  8  1  0
  8  9  2  0
  9 10  1  0
 10 11  2  0
 11 12  1  0
 12 13  2  0
 13 14  1  0
 14 15  1  0
 14 16  2  0
 16 17  1  0
 17 18  2  0
  3 19  1  0
 19 20  2  0
 20 21  1  0
 21 22  1  0
 22 23  2  0
 18  8  1  0
 23 19  1  0
 18 12  1  0
M  END
>  <ref_pdb>  (56) 
x0554_0A

>  <ref_mols>  (56) 
x0554_0A,x0566_0A

>  <original SMILES>  (56) 
CC[C@@](C)(C(=O)Nc1cccc2nc(Cl)ccc12)c1nn[nH]n1

>  <IC50 (nM)>  (56) 
811.8391671357753

>  <CNNaffinity>  (56) 
6.09053

>  <rationale>  (56) 
-1

$$$$
PV_002504896153
     RDKit          3D

 26 29  0  0  0  0  0  0  0  0999 V2000
   11.5129   14.3909   23.9599 O   0  0  0  0  0  0  0  0  0  0  0  0
   11.5518   13.8441   22.8768 C   0  0  0  0  0  0  0  0  0  0  0  0
   12.4304   14.4157   21.7289 C   0  0  0  0  0  0  0  0  0  0  0  0
   11.7777   14.8213   20.4665 N   0  0  0  0  0  0  0  0  0  0  0  0
   11.1023   16.0339   20.2844 C   0  0  0  0  0  0  0  0  0  0  0  0
   11.0098   16.8929   21.1274 O   0  0  0  0  0  0  0  0  0  0  0  0
   10.5588   16.0485   18.9081 C   0  0  0  0  0  0  0  0  0  0  0  0
    9.7431   16.9498   18.2261 C   0  0  0  0  0  0  0  0  0  0  0  0
    9.4732   16.6591   16.8873 C   0  0  0  0  0  0  0  0  0  0  0  0
    9.9957   15.4718   16.3293 C   0  0  0  0  0  0  0  0  0  0  0  0
   10.7666   14.6109   16.9925 N   0  0  0  0  0  0  0  0  0  0  0  0
   11.0413   14.9115   18.2696 C   0  0  0  0  0  0  0  0  0  0  0  0
   11.8980   14.1290   19.2558 C   0  0  0  0  0  0  0  0  0  0  0  0
   12.5810   13.1397   19.1405 O   0  0  0  0  0  0  0  0  0  0  0  0
   10.8750   12.6820   22.5960 N   0  0  0  0  0  0  0  0  0  0  0  0
    9.9652   12.0523   23.4783 C   0  0  0  0  0  0  0  0  0  0  0  0
    9.1488   12.8237   24.2806 C   0  0  0  0  0  0  0  0  0  0  0  0
    8.1420   12.2380   25.0900 C   0  0  0  0  0  0  0  0  0  0  0  0
    7.9680   10.8763   25.0906 C   0  0  0  0  0  0  0  0  0  0  0  0
    8.8154   10.0509   24.3040 C   0  0  0  0  0  0  0  0  0  0  0  0
    8.5573    8.7083   24.3525 N   0  0  0  0  0  0  0  0  0  0  0  0
    9.3383    7.9214   23.6877 C   0  0  0  0  0  0  0  0  0  0  0  0
    8.9017    6.2289   23.6275 Cl  0  0  0  0  0  0  0  0  0  0  0  0
   10.5030    8.3356   22.9822 C   0  0  0  0  0  0  0  0  0  0  0  0
   10.7500    9.6843   22.8832 C   0  0  0  0  0  0  0  0  0  0  0  0
    9.8691   10.6174   23.5179 C   0  0  0  0  0  0  0  0  0  0  0  0
  1  2  2  0
  2  3  1  0
  3  4  1  0
  4  5  1  0
  5  6  2  0
  5  7  1  0
  7  8  2  0
  8  9  1  0
  9 10  2  0
 10 11  1  0
 11 12  2  0
 12 13  1  0
 13 14  2  0
  2 15  1  0
 15 16  1  0
 16 17  2  0
 17 18  1  0
 18 19  2  0
 19 20  1  0
 20 21  2  0
 21 22  1  0
 22 23  1  0
 22 24  2  0
 24 25  1  0
 25 26  2  0
 13  4  1  0
 26 16  1  0
 12  7  1  0
 26 20  1  0
M  END
>  <ref_pdb>  (57) 
x0554_0A

>  <ref_mols>  (57) 
x0554_0A,x0566_0A

>  <original SMILES>  (57) 
O=C(CN1C(=O)c2cccnc2C1=O)Nc1cccc2nc(Cl)ccc12

>  <IC50 (nM)>  (57) 
819.1623816357587

>  <CNNaffinity>  (57) 
6.08663

>  <rationale>  (57) 
-1

$$$$
PV_002386803531
     RDKit          3D

 24 26  0  0  0  0  0  0  0  0999 V2000
   10.7782   16.1598   16.9264 C   0  0  0  0  0  0  0  0  0  0  0  0
   11.3154   15.6301   18.2143 C   0  0  0  0  0  0  0  0  0  0  0  0
   11.1455   16.2511   19.3385 N   0  0  0  0  0  0  0  0  0  0  0  0
   11.5872   15.6778   20.5062 C   0  0  0  0  0  0  0  0  0  0  0  0
   11.3568   16.5084   21.7353 C   0  0  0  0  0  0  0  0  0  0  0  0
   12.1666   14.4282   20.5442 C   0  0  0  0  0  0  0  0  0  0  0  0
   12.5978   13.7404   21.8316 C   0  0  0  0  0  0  0  0  0  0  0  0
   11.5132   13.4995   22.8959 C   0  0  0  0  0  0  0  0  0  0  0  0
   11.3558   14.2477   23.8418 O   0  0  0  0  0  0  0  0  0  0  0  0
   10.7468   12.3872   22.6807 N   0  0  0  0  0  0  0  0  0  0  0  0
    9.8417   11.8178   23.5941 C   0  0  0  0  0  0  0  0  0  0  0  0
    9.0369   12.6125   24.3797 C   0  0  0  0  0  0  0  0  0  0  0  0
    8.0454   12.0374   25.2209 C   0  0  0  0  0  0  0  0  0  0  0  0
    7.8991   10.6710   25.2748 C   0  0  0  0  0  0  0  0  0  0  0  0
    8.7465    9.8301   24.5054 C   0  0  0  0  0  0  0  0  0  0  0  0
    8.5232    8.4843   24.6101 N   0  0  0  0  0  0  0  0  0  0  0  0
    9.2560    7.6999   23.8916 C   0  0  0  0  0  0  0  0  0  0  0  0
    8.8016    6.0117   23.8396 Cl  0  0  0  0  0  0  0  0  0  0  0  0
   10.3768    8.1120   23.1152 C   0  0  0  0  0  0  0  0  0  0  0  0
   10.6186    9.4579   23.0022 C   0  0  0  0  0  0  0  0  0  0  0  0
    9.7571   10.3874   23.6655 C   0  0  0  0  0  0  0  0  0  0  0  0
   12.3963   13.7641   19.2693 C   0  0  0  0  0  0  0  0  0  0  0  0
   12.9023   12.6699   19.0908 O   0  0  0  0  0  0  0  0  0  0  0  0
   11.9532   14.4409   18.1521 N   0  0  0  0  0  0  0  0  0  0  0  0
  1  2  1  0
  2  3  2  0
  3  4  1  0
  4  5  1  0
  4  6  2  0
  6  7  1  0
  7  8  1  0
  8  9  2  0
  8 10  1  0
 10 11  1  0
 11 12  2  0
 12 13  1  0
 13 14  2  0
 14 15  1  0
 15 16  2  0
 16 17  1  0
 17 18  1  0
 17 19  2  0
 19 20  1  0
 20 21  2  0
  6 22  1  0
 22 23  2  0
 22 24  1  0
 24  2  1  0
 21 11  1  0
 21 15  1  0
M  END
>  <ref_pdb>  (58) 
x0554_0A

>  <ref_mols>  (58) 
x0554_0A,x0566_0A

>  <original SMILES>  (58) 
Cc1nc(C)c(CC(=O)Nc2cccc3nc(Cl)ccc23)c(=O)[nH]1

>  <IC50 (nM)>  (58) 
819.2944256531721

>  <CNNaffinity>  (58) 
6.08656

>  <rationale>  (58) 
-1

$$$$
PV_006860697583
     RDKit          3D

 27 28  0  0  0  0  0  0  0  0999 V2000
   11.0255   14.3556   15.8734 C   0  0  0  0  0  0  0  0  0  0  0  0
    9.8726   14.3805   16.6667 C   0  0  0  0  0  0  0  0  0  0  0  0
    9.0776   15.7123   16.4588 C   0  0  0  0  0  0  0  0  0  0  0  0
    8.9139   13.1581   16.4167 C   0  0  0  0  0  0  0  0  0  0  0  0
   10.0165   14.1469   18.1710 O   0  0  0  0  0  0  0  0  0  0  0  0
   10.4725   15.1139   18.9744 C   0  0  0  0  0  0  0  0  0  0  0  0
   10.5936   16.2861   18.7011 O   0  0  0  0  0  0  0  0  0  0  0  0
   10.7841   14.5086   20.1697 N   0  0  0  0  0  0  0  0  0  0  0  0
   11.9195   15.0057   20.9541 C   0  0  0  0  0  0  0  0  0  0  0  0
   13.1257   15.3041   20.0453 C   0  0  0  0  0  0  0  0  0  0  0  0
   11.4423   16.3100   21.6085 C   0  0  0  0  0  0  0  0  0  0  0  0
   12.3426   13.9307   22.0133 C   0  0  2  0  0  0  0  0  0  0  0  0
   12.9564   12.7380   21.4718 O   0  0  0  0  0  0  0  0  0  0  0  0
   11.1622   13.6796   22.9854 C   0  0  0  0  0  0  0  0  0  0  0  0
   10.8293   14.5341   23.7854 O   0  0  0  0  0  0  0  0  0  0  0  0
   10.5587   12.4632   22.8658 N   0  0  0  0  0  0  0  0  0  0  0  0
    9.6903   11.8504   23.7752 C   0  0  0  0  0  0  0  0  0  0  0  0
    8.8342   12.5959   24.5554 C   0  0  0  0  0  0  0  0  0  0  0  0
    7.8869   11.9626   25.3987 C   0  0  0  0  0  0  0  0  0  0  0  0
    7.8214   10.5910   25.4482 C   0  0  0  0  0  0  0  0  0  0  0  0
    8.7074    9.8046   24.6635 C   0  0  0  0  0  0  0  0  0  0  0  0
    8.5200    8.4509   24.7327 N   0  0  0  0  0  0  0  0  0  0  0  0
    9.2395    7.7070   23.9582 C   0  0  0  0  0  0  0  0  0  0  0  0
    8.7937    6.0175   23.8406 Cl  0  0  0  0  0  0  0  0  0  0  0  0
   10.3258    8.1697   23.1621 C   0  0  0  0  0  0  0  0  0  0  0  0
   10.5491    9.5216   23.1033 C   0  0  0  0  0  0  0  0  0  0  0  0
    9.6889   10.4154   23.8269 C   0  0  0  0  0  0  0  0  0  0  0  0
  1  2  1  0
  2  3  1  0
  2  4  1  0
  2  5  1  0
  5  6  1  0
  6  7  2  0
  6  8  1  0
  8  9  1  0
  9 10  1  0
  9 11  1  0
  9 12  1  0
 12 13  1  6
 12 14  1  0
 14 15  2  0
 14 16  1  0
 16 17  1  0
 17 18  2  0
 18 19  1  0
 19 20  2  0
 20 21  1  0
 21 22  2  0
 22 23  1  0
 23 24  1  0
 23 25  2  0
 25 26  1  0
 26 27  2  0
 27 17  1  0
 27 21  1  0
M  END
>  <ref_pdb>  (59) 
x0554_0A

>  <ref_mols>  (59) 
x0554_0A,x0566_0A

>  <original SMILES>  (59) 
CC(C)(C)OC(=O)NC(C)(C)[C@H](O)C(=O)Nc1cccc2nc(Cl)ccc12

>  <IC50 (nM)>  (59) 
826.7229616125053

>  <CNNaffinity>  (59) 
6.08264

>  <rationale>  (59) 
-1

$$$$
PV_002133437788
     RDKit          3D

 25 28  0  0  0  0  0  0  0  0999 V2000
   10.4283   14.2988   23.8428 O   0  0  0  0  0  0  0  0  0  0  0  0
   10.7607   13.5428   22.9485 C   0  0  0  0  0  0  0  0  0  0  0  0
   10.2076   12.3088   22.7615 N   0  0  0  0  0  0  0  0  0  0  0  0
    9.3709   11.6467   23.6721 C   0  0  0  0  0  0  0  0  0  0  0  0
    8.4732   12.3367   24.4576 C   0  0  0  0  0  0  0  0  0  0  0  0
    7.6279   11.6492   25.3693 C   0  0  0  0  0  0  0  0  0  0  0  0
    7.7034   10.2801   25.4762 C   0  0  0  0  0  0  0  0  0  0  0  0
    8.5963    9.5478   24.6500 C   0  0  0  0  0  0  0  0  0  0  0  0
    8.5181    8.1830   24.7281 N   0  0  0  0  0  0  0  0  0  0  0  0
    9.2321    7.5014   23.8958 C   0  0  0  0  0  0  0  0  0  0  0  0
    8.8802    5.7917   23.7526 Cl  0  0  0  0  0  0  0  0  0  0  0  0
   10.2616    8.0424   23.0726 C   0  0  0  0  0  0  0  0  0  0  0  0
   10.3752    9.4063   22.9979 C   0  0  0  0  0  0  0  0  0  0  0  0
    9.4732   10.2223   23.7494 C   0  0  0  0  0  0  0  0  0  0  0  0
   11.9232   13.8998   21.9649 C   0  0  2  0  0  0  0  0  0  0  0  0
   13.0197   14.6131   22.7547 C   0  0  0  0  0  0  0  0  0  0  0  0
   13.8585   15.7509   21.6491 S   0  0  0  0  0  0  0  0  0  0  0  0
   12.4286   15.8970   20.5643 C   0  0  0  0  0  0  0  0  0  0  0  0
   11.5298   14.8036   20.8591 N   0  0  0  0  0  0  0  0  0  0  0  0
   10.4916   14.4304   20.0180 C   0  0  0  0  0  0  0  0  0  0  0  0
   10.1778   13.2556   19.9480 O   0  0  0  0  0  0  0  0  0  0  0  0
    9.6476   15.4981   19.3313 C   0  0  0  0  0  0  0  0  0  0  0  0
    9.0455   16.5744   20.2918 C   0  0  0  0  0  0  0  0  0  0  0  0
    9.6558   17.6908   19.4222 C   0  0  0  0  0  0  0  0  0  0  0  0
   10.2668   16.6415   18.4617 C   0  0  0  0  0  0  0  0  0  0  0  0
  1  2  2  0
  2  3  1  0
  3  4  1  0
  4  5  2  0
  5  6  1  0
  6  7  2  0
  7  8  1  0
  8  9  2  0
  9 10  1  0
 10 11  1  0
 10 12  2  0
 12 13  1  0
 13 14  2  0
 15  2  1  1
 15 16  1  0
 16 17  1  0
 17 18  1  0
 18 19  1  0
 19 20  1  0
 20 21  2  0
 20 22  1  0
 22 23  1  0
 23 24  1  0
 24 25  1  0
 14  4  1  0
 19 15  1  0
 25 22  1  0
 14  8  1  0
M  END
>  <ref_pdb>  (60) 
x0554_0A

>  <ref_mols>  (60) 
x0554_0A,x0566_0A

>  <original SMILES>  (60) 
O=C(Nc1cccc2nc(Cl)ccc12)[C@@H]1CSCN1C(=O)C1CCC1

>  <IC50 (nM)>  (60) 
833.412480870367

>  <CNNaffinity>  (60) 
6.07914

>  <rationale>  (60) 
-1

$$$$
PV_002381806740
     RDKit          3D

 27 30  0  0  0  0  0  0  0  0999 V2000
    8.6916   18.5503   16.1498 O   0  0  0  0  0  0  0  0  0  0  0  0
    9.1837   17.6083   16.7378 C   0  0  0  0  0  0  0  0  0  0  0  0
    9.7785   16.3978   16.0385 C   0  0  0  0  0  0  0  0  0  0  0  0
    9.9122   15.1366   16.9084 C   0  0  0  0  0  0  0  0  0  0  0  0
   10.4221   15.4902   18.2968 C   0  0  0  0  0  0  0  0  0  0  0  0
   11.2558   14.6509   19.0331 C   0  0  0  0  0  0  0  0  0  0  0  0
   11.6104   14.9564   20.3532 C   0  0  0  0  0  0  0  0  0  0  0  0
   12.4525   14.0482   20.9482 O   0  0  0  0  0  0  0  0  0  0  0  0
   12.6845   14.1353   22.3526 C   0  0  0  0  0  0  0  0  0  0  0  0
   11.4488   13.8552   23.2321 C   0  0  0  0  0  0  0  0  0  0  0  0
   11.0888   14.6326   24.0971 O   0  0  0  0  0  0  0  0  0  0  0  0
   10.8269   12.6716   22.9354 N   0  0  0  0  0  0  0  0  0  0  0  0
    9.8433   12.0178   23.6924 C   0  0  0  0  0  0  0  0  0  0  0  0
    8.9476   12.7442   24.4456 C   0  0  0  0  0  0  0  0  0  0  0  0
    7.9416   12.0965   25.2076 C   0  0  0  0  0  0  0  0  0  0  0  0
    7.8416   10.7262   25.1842 C   0  0  0  0  0  0  0  0  0  0  0  0
    8.7424    9.9546   24.4027 C   0  0  0  0  0  0  0  0  0  0  0  0
    8.5414    8.6015   24.4163 N   0  0  0  0  0  0  0  0  0  0  0  0
    9.3283    7.8675   23.7004 C   0  0  0  0  0  0  0  0  0  0  0  0
    8.9388    6.1673   23.5610 Cl  0  0  0  0  0  0  0  0  0  0  0  0
   10.4616    8.3479   22.9871 C   0  0  0  0  0  0  0  0  0  0  0  0
   10.6727    9.7037   22.9529 C   0  0  0  0  0  0  0  0  0  0  0  0
    9.7812   10.5820   23.6502 C   0  0  0  0  0  0  0  0  0  0  0  0
   11.1088   16.1191   20.9602 C   0  0  0  0  0  0  0  0  0  0  0  0
   10.3110   16.9955   20.2151 C   0  0  0  0  0  0  0  0  0  0  0  0
   10.0053   16.7063   18.8828 C   0  0  0  0  0  0  0  0  0  0  0  0
    9.2868   17.6266   18.1042 N   0  0  0  0  0  0  0  0  0  0  0  0
  1  2  2  0
  2  3  1  0
  3  4  1  0
  4  5  1  0
  5  6  2  0
  6  7  1  0
  7  8  1  0
  8  9  1  0
  9 10  1  0
 10 11  2  0
 10 12  1  0
 12 13  1  0
 13 14  2  0
 14 15  1  0
 15 16  2  0
 16 17  1  0
 17 18  2  0
 18 19  1  0
 19 20  1  0
 19 21  2  0
 21 22  1  0
 22 23  2  0
  7 24  2  0
 24 25  1  0
 25 26  2  0
 26 27  1  0
 27  2  1  0
 26  5  1  0
 23 13  1  0
 23 17  1  0
M  END
>  <ref_pdb>  (61) 
x0554_0A

>  <ref_mols>  (61) 
x0554_0A,x0566_0A

>  <original SMILES>  (61) 
O=C1CCc2cc(OCC(=O)Nc3cccc4nc(Cl)ccc34)ccc2N1

>  <IC50 (nM)>  (61) 
837.876480912035

>  <CNNaffinity>  (61) 
6.07682

>  <rationale>  (61) 
-1

$$$$
PV_002548227966
     RDKit          3D

 26 28  0  0  0  0  0  0  0  0999 V2000
    8.9869   18.6076   20.7745 C   0  0  0  0  0  0  0  0  0  0  0  0
   10.0709   17.6321   20.4270 C   0  0  0  0  0  0  0  0  0  0  0  0
   10.8010   17.0828   21.3697 N   0  0  0  0  0  0  0  0  0  0  0  0
   11.6356   16.2071   20.7603 N   0  0  0  0  0  0  0  0  0  0  0  0
   12.6245   15.4850   21.5546 C   0  0  0  0  0  0  0  0  0  0  0  0
   12.3278   13.9977   21.7853 C   0  0  0  0  0  0  0  0  0  0  0  0
   11.2871   13.7021   22.8572 C   0  0  0  0  0  0  0  0  0  0  0  0
   11.1223   14.4334   23.8135 O   0  0  0  0  0  0  0  0  0  0  0  0
   10.6299   12.5148   22.6966 N   0  0  0  0  0  0  0  0  0  0  0  0
    9.7618   11.8911   23.6077 C   0  0  0  0  0  0  0  0  0  0  0  0
    8.9105   12.6261   24.4058 C   0  0  0  0  0  0  0  0  0  0  0  0
    7.9477   11.9800   25.2285 C   0  0  0  0  0  0  0  0  0  0  0  0
    7.8591   10.6082   25.2388 C   0  0  0  0  0  0  0  0  0  0  0  0
    8.7398    9.8287   24.4423 C   0  0  0  0  0  0  0  0  0  0  0  0
    8.5493    8.4744   24.4774 N   0  0  0  0  0  0  0  0  0  0  0  0
    9.3180    7.7377   23.7458 C   0  0  0  0  0  0  0  0  0  0  0  0
    8.9058    6.0410   23.6129 Cl  0  0  0  0  0  0  0  0  0  0  0  0
   10.4461    8.2160   23.0208 C   0  0  0  0  0  0  0  0  0  0  0  0
   10.6477    9.5725   22.9636 C   0  0  0  0  0  0  0  0  0  0  0  0
    9.7431   10.4526   23.6415 C   0  0  0  0  0  0  0  0  0  0  0  0
   11.4629   16.1713   19.4187 C   0  0  0  0  0  0  0  0  0  0  0  0
   12.1693   15.2280   18.4861 C   0  0  0  0  0  0  0  0  0  0  0  0
   10.4895   17.1327   19.1681 C   0  0  0  0  0  0  0  0  0  0  0  0
   10.0559   17.6303   17.8890 N   0  0  0  0  0  4  0  0  0  0  0  0
    9.3982   18.6620   17.8662 O   0  0  0  0  0  0  0  0  0  0  0  0
   10.3700   17.0000   16.8881 O   0  0  0  0  0  1  0  0  0  0  0  0
  1  2  1  0
  2  3  2  0
  3  4  1  0
  4  5  1  0
  5  6  1  0
  6  7  1  0
  7  8  2  0
  7  9  1  0
  9 10  1  0
 10 11  2  0
 11 12  1  0
 12 13  2  0
 13 14  1  0
 14 15  2  0
 15 16  1  0
 16 17  1  0
 16 18  2  0
 18 19  1  0
 19 20  2  0
  4 21  1  0
 21 22  1  0
 21 23  2  0
 23 24  1  0
 24 25  2  0
 24 26  1  0
 23  2  1  0
 20 10  1  0
 20 14  1  0
M  CHG  2  24   1  26  -1
M  END
>  <ref_pdb>  (62) 
x0554_0A

>  <ref_mols>  (62) 
x0554_0A,x0566_0A

>  <original SMILES>  (62) 
Cc1nn(CCC(=O)Nc2cccc3nc(Cl)ccc23)c(C)c1[N+](=O)[O-]

>  <IC50 (nM)>  (62) 
839.4599865193982

>  <CNNaffinity>  (62) 
6.076

>  <rationale>  (62) 
-1

$$$$
Z3207006535
     RDKit          3D

 23 26  0  0  0  0  0  0  0  0999 V2000
    8.6413   14.1347   21.9605 O   0  0  0  0  0  0  0  0  0  0  0  0
    9.7159   13.5841   22.0533 C   0  0  0  0  0  0  0  0  0  0  0  0
    9.9286   12.3869   22.7014 N   0  0  0  0  0  0  0  0  0  0  0  0
    9.1329   11.6997   23.6110 C   0  0  0  0  0  0  0  0  0  0  0  0
    8.2133   12.3630   24.3940 C   0  0  0  0  0  0  0  0  0  0  0  0
    7.4771   11.6634   25.3879 C   0  0  0  0  0  0  0  0  0  0  0  0
    7.6469   10.3069   25.5391 C   0  0  0  0  0  0  0  0  0  0  0  0
    8.5362    9.5955   24.6904 C   0  0  0  0  0  0  0  0  0  0  0  0
    8.5063    8.2310   24.8044 N   0  0  0  0  0  0  0  0  0  0  0  0
    9.1957    7.5503   23.9504 C   0  0  0  0  0  0  0  0  0  0  0  0
    8.8375    5.8411   23.8288 Cl  0  0  0  0  0  0  0  0  0  0  0  0
   10.1755    8.1041   23.0792 C   0  0  0  0  0  0  0  0  0  0  0  0
   10.2519    9.4702   22.9759 C   0  0  0  0  0  0  0  0  0  0  0  0
    9.3458   10.2828   23.7386 C   0  0  0  0  0  0  0  0  0  0  0  0
   11.0336   14.1252   21.5478 C   0  0  2  0  0  0  0  0  0  0  0  0
   11.7632   14.9951   22.6182 C   0  0  0  0  0  0  0  0  0  0  0  0
   13.1923   15.1489   22.0893 C   0  0  0  0  0  0  0  0  0  0  0  0
   13.2584   15.9467   20.7773 C   0  0  0  0  0  0  0  0  0  0  0  0
   12.1622   15.5141   19.8489 C   0  0  0  0  0  0  0  0  0  0  0  0
   11.0605   14.7719   20.2014 C   0  0  0  0  0  0  0  0  0  0  0  0
   10.2841   14.5819   19.1023 N   0  0  0  0  0  0  0  0  0  0  0  0
   10.8406   15.1726   18.0931 N   0  0  0  0  0  0  0  0  0  0  0  0
   11.9777   15.7357   18.5308 N   0  0  0  0  0  0  0  0  0  0  0  0
  1  2  2  0
  2  3  1  0
  3  4  1  0
  4  5  2  0
  5  6  1  0
  6  7  2  0
  7  8  1  0
  8  9  2  0
  9 10  1  0
 10 11  1  0
 10 12  2  0
 12 13  1  0
 13 14  2  0
 15  2  1  1
 15 16  1  0
 16 17  1  0
 17 18  1  0
 18 19  1  0
 19 20  2  0
 20 21  1  0
 21 22  2  0
 22 23  1  0
 14  4  1  0
 20 15  1  0
 14  8  1  0
 23 19  1  0
M  END
>  <ref_pdb>  (63) 
x0554_0A

>  <ref_mols>  (63) 
x0554_0A,x0566_0A

>  <original SMILES>  (63) 
O=C(Nc1cccc2nc(Cl)ccc12)[C@@H]1CCCc2[nH]nnc21

>  <IC50 (nM)>  (63) 
843.25708733952

>  <CNNaffinity>  (63) 
6.07404

>  <rationale>  (63) 
-1

$$$$
Z3091962863
     RDKit          3D

 23 24  0  0  0  0  0  0  0  0999 V2000
   10.1844   16.0699   16.1729 C   0  0  0  0  0  0  0  0  0  0  0  0
   10.5776   14.8297   16.9838 C   0  0  0  0  0  0  0  0  0  0  0  0
    9.4092   13.8503   17.0502 C   0  0  0  0  0  0  0  0  0  0  0  0
   11.0842   15.2982   18.3612 C   0  0  0  0  0  0  0  0  0  0  0  0
   11.4706   14.0347   19.5673 S   0  0  0  0  0  6  0  0  0  0  0  0
   10.2065   13.4944   20.0753 O   0  0  0  0  0  0  0  0  0  0  0  0
   12.5334   13.1630   19.0779 O   0  0  0  0  0  0  0  0  0  0  0  0
   12.1651   15.0190   20.9134 C   0  0  0  0  0  0  0  0  0  0  0  0
   12.5531   14.2712   22.2333 C   0  0  0  0  0  0  0  0  0  0  0  0
   11.4638   13.8660   23.2486 C   0  0  0  0  0  0  0  0  0  0  0  0
   11.3137   14.4495   24.3047 O   0  0  0  0  0  0  0  0  0  0  0  0
   10.7368   12.7727   22.8624 N   0  0  0  0  0  0  0  0  0  0  0  0
    9.8028   12.0917   23.6602 C   0  0  0  0  0  0  0  0  0  0  0  0
    8.9291   12.7946   24.4584 C   0  0  0  0  0  0  0  0  0  0  0  0
    7.9419   12.1254   25.2274 C   0  0  0  0  0  0  0  0  0  0  0  0
    7.8553   10.7530   25.1837 C   0  0  0  0  0  0  0  0  0  0  0  0
    8.7513   10.0038   24.3744 C   0  0  0  0  0  0  0  0  0  0  0  0
    8.5667    8.6479   24.3667 N   0  0  0  0  0  0  0  0  0  0  0  0
    9.3715    7.9368   23.6459 C   0  0  0  0  0  0  0  0  0  0  0  0
    8.9990    6.2351   23.4699 Cl  0  0  0  0  0  0  0  0  0  0  0  0
   10.5064    8.4460   22.9515 C   0  0  0  0  0  0  0  0  0  0  0  0
   10.6905    9.8063   22.9243 C   0  0  0  0  0  0  0  0  0  0  0  0
    9.7714   10.6577   23.6183 C   0  0  0  0  0  0  0  0  0  0  0  0
  1  2  1  0
  2  3  1  0
  2  4  1  0
  4  5  1  0
  5  6  2  0
  5  7  2  0
  5  8  1  0
  8  9  1  0
  9 10  1  0
 10 11  2  0
 10 12  1  0
 12 13  1  0
 13 14  2  0
 14 15  1  0
 15 16  2  0
 16 17  1  0
 17 18  2  0
 18 19  1  0
 19 20  1  0
 19 21  2  0
 21 22  1  0
 22 23  2  0
 23 13  1  0
 23 17  1  0
M  END
>  <ref_pdb>  (64) 
x0554_0A

>  <ref_mols>  (64) 
x0554_0A,x0566_0A

>  <original SMILES>  (64) 
CC(C)CS(=O)(=O)CCC(=O)Nc1cccc2nc(Cl)ccc12

>  <IC50 (nM)>  (64) 
845.785041549761

>  <CNNaffinity>  (64) 
6.07274

>  <rationale>  (64) 
-1

$$$$
PV_006991417185
     RDKit          3D

 21 23  0  0  0  0  0  0  0  0999 V2000
   10.7512   14.5770   23.6674 O   0  0  0  0  0  0  0  0  0  0  0  0
   11.2418   13.7685   22.8924 C   0  0  0  0  0  0  0  0  0  0  0  0
   12.4537   14.1550   22.0546 C   0  0  0  0  0  0  0  0  0  0  0  0
   12.0576   14.4632   20.6398 C   0  0  0  0  0  0  0  0  0  0  0  0
   11.4444   15.5930   20.2063 C   0  0  0  0  0  0  0  0  0  0  0  0
   10.8586   17.0824   21.2488 Br  0  0  0  0  0  0  0  0  0  0  0  0
   11.3092   15.4474   18.7729 C   0  0  0  0  0  0  0  0  0  0  0  0
   11.7712   14.2833   18.3749 N   0  0  0  0  0  0  0  0  0  0  0  0
   12.2322   13.6758   19.5116 N   0  0  0  0  0  0  0  0  0  0  0  0
   10.7912   12.4664   22.8317 N   0  0  0  0  0  0  0  0  0  0  0  0
    9.8070   11.8917   23.6272 C   0  0  0  0  0  0  0  0  0  0  0  0
    8.9323   12.6692   24.3962 C   0  0  0  0  0  0  0  0  0  0  0  0
    7.9747   12.0659   25.2136 C   0  0  0  0  0  0  0  0  0  0  0  0
    7.8767   10.6707   25.2321 C   0  0  0  0  0  0  0  0  0  0  0  0
    8.7250    9.8839   24.4465 C   0  0  0  0  0  0  0  0  0  0  0  0
    8.5560    8.5547   24.4677 N   0  0  0  0  0  0  0  0  0  0  0  0
    9.3409    7.7821   23.7052 C   0  0  0  0  0  0  0  0  0  0  0  0
    8.9668    6.0828   23.5542 Cl  0  0  0  0  0  0  0  0  0  0  0  0
   10.4019    8.3128   22.9721 C   0  0  0  0  0  0  0  0  0  0  0  0
   10.5814    9.6860   22.9113 C   0  0  0  0  0  0  0  0  0  0  0  0
    9.7098   10.4972   23.6481 C   0  0  0  0  0  0  0  0  0  0  0  0
  1  2  2  0
  2  3  1  0
  3  4  1  0
  4  5  2  0
  5  6  1  0
  5  7  1  0
  7  8  2  0
  8  9  1  0
  2 10  1  0
 10 11  1  0
 11 12  2  0
 12 13  1  0
 13 14  2  0
 14 15  1  0
 15 16  2  0
 16 17  1  0
 17 18  1  0
 17 19  2  0
 19 20  1  0
 20 21  2  0
  9  4  1  0
 21 11  1  0
 21 15  1  0
M  END
>  <ref_pdb>  (65) 
x0554_0A

>  <ref_mols>  (65) 
x0554_0A,x0566_0A

>  <original SMILES>  (65) 
O=C(Cc1[nH]ncc1Br)Nc1cccc2nc(Cl)ccc12

>  <IC50 (nM)>  (65) 
847.656701770377

>  <CNNaffinity>  (65) 
6.07178

>  <rationale>  (65) 
-1

$$$$
Z3207006734
     RDKit          3D

 24 27  0  0  0  0  0  0  0  0999 V2000
   11.2142   14.5635   23.7618 O   0  0  0  0  0  0  0  0  0  0  0  0
   11.4886   13.7764   22.8755 C   0  0  0  0  0  0  0  0  0  0  0  0
   12.5827   14.0852   21.8458 C   0  0  0  0  0  0  0  0  0  0  0  0
   12.0799   14.3124   20.4932 N   0  0  0  0  0  0  0  0  0  0  0  0
   12.4165   13.6526   19.3375 C   0  0  0  0  0  0  0  0  0  0  0  0
   11.8596   14.1677   18.2736 N   0  0  0  0  0  0  0  0  0  0  0  0
   11.1171   15.2093   18.7332 C   0  0  0  0  0  0  0  0  0  0  0  0
   11.2295   15.3259   20.0993 C   0  0  0  0  0  0  0  0  0  0  0  0
   10.6641   16.4544   20.9087 C   0  0  0  0  0  0  0  0  0  0  0  0
    9.5449   17.1479   20.0955 C   0  0  0  0  0  0  0  0  0  0  0  0
    9.9831   17.4261   18.6391 C   0  0  0  0  0  0  0  0  0  0  0  0
   10.2917   16.1197   17.8775 C   0  0  0  0  0  0  0  0  0  0  0  0
   10.8754   12.5646   22.6979 N   0  0  0  0  0  0  0  0  0  0  0  0
    9.9190   11.9687   23.5430 C   0  0  0  0  0  0  0  0  0  0  0  0
    9.0719   12.7567   24.2948 C   0  0  0  0  0  0  0  0  0  0  0  0
    8.0599   12.1819   25.1046 C   0  0  0  0  0  0  0  0  0  0  0  0
    7.9125   10.8185   25.1566 C   0  0  0  0  0  0  0  0  0  0  0  0
    8.7760    9.9801   24.4014 C   0  0  0  0  0  0  0  0  0  0  0  0
    8.5316    8.6376   24.4962 N   0  0  0  0  0  0  0  0  0  0  0  0
    9.2810    7.8411   23.8083 C   0  0  0  0  0  0  0  0  0  0  0  0
    8.8268    6.1528   23.7795 Cl  0  0  0  0  0  0  0  0  0  0  0  0
   10.4141    8.2437   23.0454 C   0  0  0  0  0  0  0  0  0  0  0  0
   10.6686    9.5899   22.9291 C   0  0  0  0  0  0  0  0  0  0  0  0
    9.8178   10.5334   23.5922 C   0  0  0  0  0  0  0  0  0  0  0  0
  1  2  2  0
  2  3  1  0
  3  4  1  0
  4  5  1  0
  5  6  2  0
  6  7  1  0
  7  8  2  0
  8  9  1  0
  9 10  1  0
 10 11  1  0
 11 12  1  0
  2 13  1  0
 13 14  1  0
 14 15  2  0
 15 16  1  0
 16 17  2  0
 17 18  1  0
 18 19  2  0
 19 20  1  0
 20 21  1  0
 20 22  2  0
 22 23  1  0
 23 24  2  0
  8  4  1  0
 24 14  1  0
 12  7  1  0
 24 18  1  0
M  END
>  <ref_pdb>  (66) 
x0554_0A

>  <ref_mols>  (66) 
x0554_0A,x0566_0A

>  <original SMILES>  (66) 
O=C(Cn1cnc2c1CCCC2)Nc1cccc2nc(Cl)ccc12

>  <IC50 (nM)>  (66) 
848.8481373340793

>  <CNNaffinity>  (66) 
6.07117

>  <rationale>  (66) 
-1

$$$$
PV_007165548033
     RDKit          3D

 25 27  0  0  0  0  0  0  0  0999 V2000
   10.6363   14.2601   16.6185 C   0  0  0  0  0  0  0  0  0  0  0  0
   10.5989   15.4709   17.5396 C   0  0  0  0  0  0  0  0  0  0  0  0
   11.1378   16.7103   16.8467 C   0  0  0  0  0  0  0  0  0  0  0  0
    9.1830   15.7302   18.0304 C   0  0  0  0  0  0  0  0  0  0  0  0
   11.5258   15.2896   18.6415 O   0  0  0  0  0  0  0  0  0  0  0  0
   11.3372   14.3221   19.5568 C   0  0  0  0  0  0  0  0  0  0  0  0
   10.4624   13.4763   19.5664 O   0  0  0  0  0  0  0  0  0  0  0  0
   12.2755   14.4397   20.5413 N   0  0  0  0  0  0  0  0  0  0  0  0
   13.0417   15.6288   20.9144 C   0  0  0  0  0  0  0  0  0  0  0  0
   12.9968   15.1618   22.3760 C   0  0  0  0  0  0  0  0  0  0  0  0
   12.2321   13.8986   21.9197 C   0  0  1  0  0  0  0  0  0  0  0  0
   10.8827   13.6687   22.6633 C   0  0  0  0  0  0  0  0  0  0  0  0
   10.3388   14.5592   23.2878 O   0  0  0  0  0  0  0  0  0  0  0  0
   10.4090   12.3834   22.5791 N   0  0  0  0  0  0  0  0  0  0  0  0
    9.5435   11.7444   23.4874 C   0  0  0  0  0  0  0  0  0  0  0  0
    8.6769   12.4702   24.2791 C   0  0  0  0  0  0  0  0  0  0  0  0
    7.8084   11.8236   25.1984 C   0  0  0  0  0  0  0  0  0  0  0  0
    7.8185   10.4539   25.3055 C   0  0  0  0  0  0  0  0  0  0  0  0
    8.6852    9.6841   24.4895 C   0  0  0  0  0  0  0  0  0  0  0  0
    8.5560    8.3265   24.5988 N   0  0  0  0  0  0  0  0  0  0  0  0
    9.2914    7.5962   23.8293 C   0  0  0  0  0  0  0  0  0  0  0  0
    8.8928    5.8941   23.7370 Cl  0  0  0  0  0  0  0  0  0  0  0  0
   10.3634    8.0852   23.0296 C   0  0  0  0  0  0  0  0  0  0  0  0
   10.5096    9.4448   22.9066 C   0  0  0  0  0  0  0  0  0  0  0  0
    9.6021   10.3130   23.5935 C   0  0  0  0  0  0  0  0  0  0  0  0
  1  2  1  0
  2  3  1  0
  2  4  1  0
  2  5  1  0
  5  6  1  0
  6  7  2  0
  6  8  1  0
  8  9  1  0
  9 10  1  0
 10 11  1  0
 11 12  1  1
 12 13  2  0
 12 14  1  0
 14 15  1  0
 15 16  2  0
 16 17  1  0
 17 18  2  0
 18 19  1  0
 19 20  2  0
 20 21  1  0
 21 22  1  0
 21 23  2  0
 23 24  1  0
 24 25  2  0
 11  8  1  0
 25 15  1  0
 25 19  1  0
M  END
>  <ref_pdb>  (67) 
x0554_0A

>  <ref_mols>  (67) 
x0554_0A,x0566_0A

>  <original SMILES>  (67) 
CC(C)(C)OC(=O)N1CC[C@H]1C(=O)Nc1cccc2nc(Cl)ccc12

>  <IC50 (nM)>  (67) 
855.0470244726891

>  <CNNaffinity>  (67) 
6.06801

>  <rationale>  (67) 
-1

$$$$
Z3091962407
     RDKit          3D

 24 26  0  0  0  0  0  0  0  0999 V2000
    9.3229   15.8975   17.9832 C   0  0  0  0  0  0  0  0  0  0  0  0
   10.8689   16.3305   17.8998 C   0  0  0  0  0  0  0  0  0  0  0  0
   11.3879   16.0569   16.4382 C   0  0  0  0  0  0  0  0  0  0  0  0
   10.9366   17.6694   18.2245 C   0  0  0  0  0  0  0  0  0  0  0  0
   11.6069   15.4051   18.9042 N   0  0  0  0  0  0  0  0  0  0  0  0
   11.9928   14.2009   18.5596 N   0  0  0  0  0  0  0  0  0  0  0  0
   12.4087   13.6110   19.6447 N   0  0  0  0  0  0  0  0  0  0  0  0
   12.2443   14.5009   20.6384 C   0  0  0  0  0  0  0  0  0  0  0  0
   12.5696   14.2035   22.0440 C   0  0  0  0  0  0  0  0  0  0  0  0
   11.2681   13.9866   22.7791 C   0  0  0  0  0  0  0  0  0  0  0  0
   10.7016   14.9050   23.3319 O   0  0  0  0  0  0  0  0  0  0  0  0
   10.8099   12.6978   22.7204 N   0  0  0  0  0  0  0  0  0  0  0  0
    9.8606   12.0640   23.5419 C   0  0  0  0  0  0  0  0  0  0  0  0
    8.9939   12.7988   24.3219 C   0  0  0  0  0  0  0  0  0  0  0  0
    8.0090   12.1616   25.1205 C   0  0  0  0  0  0  0  0  0  0  0  0
    7.9013   10.7911   25.1196 C   0  0  0  0  0  0  0  0  0  0  0  0
    8.7823   10.0083   24.3280 C   0  0  0  0  0  0  0  0  0  0  0  0
    8.5668    8.6577   24.3588 N   0  0  0  0  0  0  0  0  0  0  0  0
    9.3558    7.9080   23.6600 C   0  0  0  0  0  0  0  0  0  0  0  0
    8.9462    6.2113   23.5381 Cl  0  0  0  0  0  0  0  0  0  0  0  0
   10.5021    8.3729   22.9552 C   0  0  0  0  0  0  0  0  0  0  0  0
   10.7152    9.7265   22.8898 C   0  0  0  0  0  0  0  0  0  0  0  0
    9.8133   10.6236   23.5513 C   0  0  0  0  0  0  0  0  0  0  0  0
   11.7178   15.6369   20.2124 N   0  0  0  0  0  0  0  0  0  0  0  0
  1  2  1  0
  2  3  1  0
  2  4  1  0
  2  5  1  0
  5  6  1  0
  6  7  2  0
  7  8  1  0
  8  9  1  0
  9 10  1  0
 10 11  2  0
 10 12  1  0
 12 13  1  0
 13 14  2  0
 14 15  1  0
 15 16  2  0
 16 17  1  0
 17 18  2  0
 18 19  1  0
 19 20  1  0
 19 21  2  0
 21 22  1  0
 22 23  2  0
  8 24  2  0
 24  5  1  0
 23 13  1  0
 23 17  1  0
M  END
>  <ref_pdb>  (68) 
x0554_0A

>  <ref_mols>  (68) 
x0554_0A,x0566_0A

>  <original SMILES>  (68) 
CC(C)(C)n1nnc(CC(=O)Nc2cccc3nc(Cl)ccc23)n1

>  <IC50 (nM)>  (68) 
855.086401750025

>  <CNNaffinity>  (68) 
6.06799

>  <rationale>  (68) 
-1

$$$$
PV_002394205277
     RDKit          3D

 25 27  0  0  0  0  0  0  0  0999 V2000
   11.1326   16.7211   16.8541 C   0  0  0  0  0  0  0  0  0  0  0  0
   10.5984   15.4780   17.5435 C   0  0  0  0  0  0  0  0  0  0  0  0
   10.6523   14.2661   16.6255 C   0  0  0  0  0  0  0  0  0  0  0  0
    9.1783   15.7257   18.0244 C   0  0  0  0  0  0  0  0  0  0  0  0
   11.5181   15.3091   18.6535 O   0  0  0  0  0  0  0  0  0  0  0  0
   11.3415   14.3331   19.5616 C   0  0  0  0  0  0  0  0  0  0  0  0
   10.4710   13.4823   19.5697 O   0  0  0  0  0  0  0  0  0  0  0  0
   12.2772   14.4491   20.5479 N   0  0  0  0  0  0  0  0  0  0  0  0
   13.0460   15.6342   20.9241 C   0  0  0  0  0  0  0  0  0  0  0  0
   13.0041   15.1597   22.3835 C   0  0  0  0  0  0  0  0  0  0  0  0
   12.2389   13.8991   21.9248 C   0  0  1  0  0  0  0  0  0  0  0  0
   10.8886   13.6653   22.6688 C   0  0  0  0  0  0  0  0  0  0  0  0
   10.3410   14.5554   23.2892 O   0  0  0  0  0  0  0  0  0  0  0  0
   10.4042   12.3847   22.5769 N   0  0  0  0  0  0  0  0  0  0  0  0
    9.5445   11.7441   23.4889 C   0  0  0  0  0  0  0  0  0  0  0  0
    8.6806   12.4694   24.2841 C   0  0  0  0  0  0  0  0  0  0  0  0
    7.8103   11.8231   25.1998 C   0  0  0  0  0  0  0  0  0  0  0  0
    7.8222   10.4533   25.3085 C   0  0  0  0  0  0  0  0  0  0  0  0
    8.6902    9.6833   24.4930 C   0  0  0  0  0  0  0  0  0  0  0  0
    8.5594    8.3265   24.6011 N   0  0  0  0  0  0  0  0  0  0  0  0
    9.2953    7.5959   23.8316 C   0  0  0  0  0  0  0  0  0  0  0  0
    8.8915    5.8958   23.7327 Cl  0  0  0  0  0  0  0  0  0  0  0  0
   10.3660    8.0855   23.0314 C   0  0  0  0  0  0  0  0  0  0  0  0
   10.5118    9.4442   22.9097 C   0  0  0  0  0  0  0  0  0  0  0  0
    9.6050   10.3129   23.5969 C   0  0  0  0  0  0  0  0  0  0  0  0
  1  2  1  0
  2  3  1  0
  2  4  1  0
  2  5  1  0
  5  6  1  0
  6  7  2  0
  6  8  1  0
  8  9  1  0
  9 10  1  0
 10 11  1  0
 11 12  1  1
 12 13  2  0
 12 14  1  0
 14 15  1  0
 15 16  2  0
 16 17  1  0
 17 18  2  0
 18 19  1  0
 19 20  2  0
 20 21  1  0
 21 22  1  0
 21 23  2  0
 23 24  1  0
 24 25  2  0
 11  8  1  0
 25 15  1  0
 25 19  1  0
M  END
>  <ref_pdb>  (69) 
x0554_0A

>  <ref_mols>  (69) 
x0554_0A,x0566_0A

>  <original SMILES>  (69) 
CC(C)(C)OC(=O)N1CC[C@H]1C(=O)Nc1cccc2nc(Cl)ccc12

>  <IC50 (nM)>  (69) 
860.3793929484486

>  <CNNaffinity>  (69) 
6.06531

>  <rationale>  (69) 
-1

$$$$
PV_002286275544
     RDKit          3D

 24 27  0  0  0  0  0  0  0  0999 V2000
   10.8217   14.7639   23.5243 O   0  0  0  0  0  0  0  0  0  0  0  0
   11.2673   13.8630   22.8373 C   0  0  0  0  0  0  0  0  0  0  0  0
   12.5184   14.0333   21.9609 C   0  0  0  0  0  0  0  0  0  0  0  0
   12.2037   14.3467   20.5202 C   0  0  0  0  0  0  0  0  0  0  0  0
   12.4962   13.6058   19.4169 C   0  0  0  0  0  0  0  0  0  0  0  0
   12.0262   14.2333   18.2757 N   0  0  0  0  0  0  0  0  0  0  0  0
   11.3614   15.3917   18.6577 C   0  0  0  0  0  0  0  0  0  0  0  0
   10.6493   16.4012   17.9629 C   0  0  0  0  0  0  0  0  0  0  0  0
   10.0938   17.4352   18.5936 N   0  0  0  0  0  0  0  0  0  0  0  0
   10.1872   17.5006   19.9465 C   0  0  0  0  0  0  0  0  0  0  0  0
   10.8459   16.5641   20.7265 C   0  0  0  0  0  0  0  0  0  0  0  0
   11.4714   15.4906   20.0617 C   0  0  0  0  0  0  0  0  0  0  0  0
   10.7158   12.6141   22.7656 N   0  0  0  0  0  0  0  0  0  0  0  0
    9.7986   11.9927   23.6239 C   0  0  0  0  0  0  0  0  0  0  0  0
    8.9409   12.7130   24.4272 C   0  0  0  0  0  0  0  0  0  0  0  0
    7.9783   12.0503   25.2387 C   0  0  0  0  0  0  0  0  0  0  0  0
    7.8865   10.6759   25.2200 C   0  0  0  0  0  0  0  0  0  0  0  0
    8.7649    9.9143   24.4012 C   0  0  0  0  0  0  0  0  0  0  0  0
    8.5732    8.5579   24.4071 N   0  0  0  0  0  0  0  0  0  0  0  0
    9.3594    7.8370   23.6782 C   0  0  0  0  0  0  0  0  0  0  0  0
    8.9696    6.1389   23.5148 Cl  0  0  0  0  0  0  0  0  0  0  0  0
   10.4952    8.3277   22.9723 C   0  0  0  0  0  0  0  0  0  0  0  0
   10.6883    9.6858   22.9352 C   0  0  0  0  0  0  0  0  0  0  0  0
    9.7753   10.5524   23.6222 C   0  0  0  0  0  0  0  0  0  0  0  0
  1  2  2  0
  2  3  1  0
  3  4  1  0
  4  5  2  0
  5  6  1  0
  6  7  1  0
  7  8  2  0
  8  9  1  0
  9 10  2  0
 10 11  1  0
 11 12  2  0
  2 13  1  0
 13 14  1  0
 14 15  2  0
 15 16  1  0
 16 17  2  0
 17 18  1  0
 18 19  2  0
 19 20  1  0
 20 21  1  0
 20 22  2  0
 22 23  1  0
 23 24  2  0
 12  4  1  0
 24 14  1  0
 12  7  1  0
 24 18  1  0
M  END
>  <ref_pdb>  (70) 
x0554_0A

>  <ref_mols>  (70) 
x0554_0A,x0566_0A

>  <original SMILES>  (70) 
O=C(Cc1c[nH]c2cnccc12)Nc1cccc2nc(Cl)ccc12

>  <IC50 (nM)>  (70) 
871.4450352389821

>  <CNNaffinity>  (70) 
6.05976

>  <rationale>  (70) 
-1

$$$$
Z4642496142
     RDKit          3D

 24 27  0  0  0  0  0  0  0  0999 V2000
   11.8125   15.9562   17.8268 C   0  0  0  0  0  0  0  0  0  0  0  0
   11.2388   15.0958   18.8997 C   0  0  0  0  0  0  0  0  0  0  0  0
   10.3672   14.1335   18.7418 N   0  0  0  0  0  0  0  0  0  0  0  0
   10.1688   13.5501   19.9751 N   0  0  0  0  0  0  0  0  0  0  0  0
   10.9176   14.1773   20.8299 C   0  0  0  0  0  0  0  0  0  0  0  0
   11.2202   13.7902   22.2481 C   0  0  2  0  0  0  0  0  0  0  0  0
    9.8933   13.4834   22.9142 C   0  0  0  0  0  0  0  0  0  0  0  0
    9.1780   14.3657   23.3413 O   0  0  0  0  0  0  0  0  0  0  0  0
    9.6014   12.1453   22.9809 N   0  0  0  0  0  0  0  0  0  0  0  0
    8.8377   11.4705   23.9450 C   0  0  0  0  0  0  0  0  0  0  0  0
    7.9764   12.1411   24.7863 C   0  0  0  0  0  0  0  0  0  0  0  0
    7.2728   11.4473   25.8064 C   0  0  0  0  0  0  0  0  0  0  0  0
    7.4417   10.0908   25.9617 C   0  0  0  0  0  0  0  0  0  0  0  0
    8.2911    9.3699   25.0811 C   0  0  0  0  0  0  0  0  0  0  0  0
    8.3162    8.0080   25.2439 N   0  0  0  0  0  0  0  0  0  0  0  0
    8.9229    7.3229   24.3297 C   0  0  0  0  0  0  0  0  0  0  0  0
    8.6653    5.5961   24.2675 Cl  0  0  0  0  0  0  0  0  0  0  0  0
    9.7450    7.8681   23.3079 C   0  0  0  0  0  0  0  0  0  0  0  0
    9.7857    9.2259   23.1702 C   0  0  0  0  0  0  0  0  0  0  0  0
    9.0014   10.0464   24.0441 C   0  0  0  0  0  0  0  0  0  0  0  0
   12.0449   14.8554   23.0097 C   0  0  0  0  0  0  0  0  0  0  0  0
   13.1368   15.3685   22.0679 C   0  0  0  0  0  0  0  0  0  0  0  0
   12.4903   16.1050   20.9044 C   0  0  0  0  0  0  0  0  0  0  0  0
   11.6030   15.1825   20.2094 N   0  0  0  0  0  0  0  0  0  0  0  0
  1  2  1  0
  2  3  2  0
  3  4  1  0
  4  5  2  0
  5  6  1  0
  6  7  1  1
  7  8  2  0
  7  9  1  0
  9 10  1  0
 10 11  2  0
 11 12  1  0
 12 13  2  0
 13 14  1  0
 14 15  2  0
 15 16  1  0
 16 17  1  0
 16 18  2  0
 18 19  1  0
 19 20  2  0
  6 21  1  0
 21 22  1  0
 22 23  1  0
 23 24  1  0
 24  2  1  0
 24  5  1  0
 20 10  1  0
 20 14  1  0
M  END
>  <ref_pdb>  (71) 
x0554_0A

>  <ref_mols>  (71) 
x0554_0A,x0566_0A

>  <original SMILES>  (71) 
Cc1nnc2n1CCC[C@H]2C(=O)Nc1cccc2nc(Cl)ccc12

>  <IC50 (nM)>  (71) 
877.1825831880574

>  <CNNaffinity>  (71) 
6.05691

>  <rationale>  (71) 
-1

$$$$
Z4410143797
     RDKit          3D

 26 29  0  0  0  0  0  0  0  0999 V2000
    8.7600   14.7506   22.5888 O   0  0  0  0  0  0  0  0  0  0  0  0
    9.6827   14.0024   22.3615 C   0  0  0  0  0  0  0  0  0  0  0  0
    9.6994   12.6652   22.6650 N   0  0  0  0  0  0  0  0  0  0  0  0
    8.9910   11.9570   23.6375 C   0  0  0  0  0  0  0  0  0  0  0  0
    8.0767   12.5623   24.4699 C   0  0  0  0  0  0  0  0  0  0  0  0
    7.3634   11.8000   25.4351 C   0  0  0  0  0  0  0  0  0  0  0  0
    7.5519   10.4399   25.5240 C   0  0  0  0  0  0  0  0  0  0  0  0
    8.4633    9.7846   24.6512 C   0  0  0  0  0  0  0  0  0  0  0  0
    8.4998    8.4145   24.7012 N   0  0  0  0  0  0  0  0  0  0  0  0
    9.2606    7.8095   23.8460 C   0  0  0  0  0  0  0  0  0  0  0  0
    9.0006    6.0969   23.6054 Cl  0  0  0  0  0  0  0  0  0  0  0  0
   10.2265    8.4496   23.0184 C   0  0  0  0  0  0  0  0  0  0  0  0
   10.2303    9.8176   22.9844 C   0  0  0  0  0  0  0  0  0  0  0  0
    9.2556   10.5476   23.7407 C   0  0  0  0  0  0  0  0  0  0  0  0
   10.9900   14.3980   21.6721 C   0  0  1  0  0  0  0  0  0  0  0  0
   12.0724   14.0603   22.6306 C   0  0  0  0  0  0  0  0  0  0  0  0
   12.3355   14.7694   23.7128 N   0  0  0  0  0  0  0  0  0  0  0  0
   13.2813   14.0325   24.2684 N   0  0  0  0  0  0  0  0  0  0  0  0
   13.5790   12.9321   23.6259 N   0  0  0  0  0  0  0  0  0  0  0  0
   12.8067   12.9227   22.5753 N   0  0  0  0  0  0  0  0  0  0  0  0
   11.2462   14.1633   20.1972 C   0  0  0  0  0  0  0  0  0  0  0  0
   11.2200   15.5703   20.7168 C   0  0  1  0  0  0  0  0  0  0  0  0
   10.1714   16.5618   20.2557 C   0  0  0  0  0  0  0  0  0  0  0  0
    9.9435   17.5019   21.1852 F   0  0  0  0  0  0  0  0  0  0  0  0
   10.5817   17.1930   19.1380 F   0  0  0  0  0  0  0  0  0  0  0  0
    9.0037   15.9669   19.9748 F   0  0  0  0  0  0  0  0  0  0  0  0
  1  2  2  0
  2  3  1  0
  3  4  1  0
  4  5  2  0
  5  6  1  0
  6  7  2  0
  7  8  1  0
  8  9  2  0
  9 10  1  0
 10 11  1  0
 10 12  2  0
 12 13  1  0
 13 14  2  0
 15  2  1  1
 15 16  1  0
 16 17  2  0
 17 18  1  0
 18 19  1  0
 19 20  2  0
 15 21  1  0
 21 22  1  0
 22 23  1  6
 23 24  1  0
 23 25  1  0
 23 26  1  0
 14  4  1  0
 22 15  1  0
 14  8  1  0
 20 16  1  0
M  END
>  <ref_pdb>  (72) 
x0554_0A

>  <ref_mols>  (72) 
x0554_0A,x0566_0A

>  <original SMILES>  (72) 
O=C(Nc1cccc2nc(Cl)ccc12)[C@@]1(c2nn[nH]n2)C[C@H]1C(F)(F)F

>  <IC50 (nM)>  (72) 
877.4856036458077

>  <CNNaffinity>  (72) 
6.05676

>  <rationale>  (72) 
-1

$$$$
PV_006770993115
     RDKit          3D

 28 31  0  0  0  0  0  0  0  0999 V2000
   10.9061   14.4129   24.1895 O   0  0  0  0  0  0  0  0  0  0  0  0
   11.2870   13.6337   23.3392 C   0  0  0  0  0  0  0  0  0  0  0  0
   10.7004   12.4375   23.0515 N   0  0  0  0  0  0  0  0  0  0  0  0
    9.7180   11.7930   23.8062 C   0  0  0  0  0  0  0  0  0  0  0  0
    8.7821   12.5214   24.5084 C   0  0  0  0  0  0  0  0  0  0  0  0
    7.7629   11.8673   25.2466 C   0  0  0  0  0  0  0  0  0  0  0  0
    7.7125   10.4930   25.2754 C   0  0  0  0  0  0  0  0  0  0  0  0
    8.6638    9.7273   24.5465 C   0  0  0  0  0  0  0  0  0  0  0  0
    8.5025    8.3704   24.5816 N   0  0  0  0  0  0  0  0  0  0  0  0
    9.2735    7.6513   23.8382 C   0  0  0  0  0  0  0  0  0  0  0  0
    8.8772    5.9551   23.6822 Cl  0  0  0  0  0  0  0  0  0  0  0  0
   10.3977    8.1429   23.1158 C   0  0  0  0  0  0  0  0  0  0  0  0
   10.6085    9.4973   23.1078 C   0  0  0  0  0  0  0  0  0  0  0  0
    9.6967   10.3607   23.7970 C   0  0  0  0  0  0  0  0  0  0  0  0
   12.4879   13.9460   22.4813 C   0  0  2  0  0  0  0  0  0  0  0  0
   12.2494   14.1665   20.9740 C   0  0  0  0  0  0  0  0  0  0  0  0
   11.0141   15.0124   20.6397 C   0  0  0  0  0  0  0  0  0  0  0  0
   10.8694   15.3100   19.1538 C   0  0  0  0  0  0  0  0  0  0  0  0
    9.6440   15.1862   18.4822 C   0  0  0  0  0  0  0  0  0  0  0  0
    9.5426   15.4514   17.1087 C   0  0  0  0  0  0  0  0  0  0  0  0
   10.6660   15.8754   16.3900 C   0  0  0  0  0  0  0  0  0  0  0  0
   11.8848   16.0396   17.0537 C   0  0  0  0  0  0  0  0  0  0  0  0
   11.9808   15.7439   18.4132 C   0  0  0  0  0  0  0  0  0  0  0  0
   13.4993   12.8915   22.7825 C   0  0  0  0  0  0  0  0  0  0  0  0
   14.2248   12.9437   23.8957 N   0  0  0  0  0  0  0  0  0  0  0  0
   15.1941   12.0742   23.6286 N   0  0  0  0  0  0  0  0  0  0  0  0
   15.1042   11.4889   22.4458 N   0  0  0  0  0  0  0  0  0  0  0  0
   13.9695   11.9380   21.9127 N   0  0  0  0  0  0  0  0  0  0  0  0
  1  2  2  0
  2  3  1  0
  3  4  1  0
  4  5  2  0
  5  6  1  0
  6  7  2  0
  7  8  1  0
  8  9  2  0
  9 10  1  0
 10 11  1  0
 10 12  2  0
 12 13  1  0
 13 14  2  0
  2 15  1  0
 15 16  1  6
 16 17  1  0
 17 18  1  0
 18 19  2  0
 19 20  1  0
 20 21  2  0
 21 22  1  0
 22 23  2  0
 15 24  1  0
 24 25  2  0
 25 26  1  0
 26 27  1  0
 27 28  2  0
 14  4  1  0
 23 18  1  0
 28 24  1  0
 14  8  1  0
M  END
>  <ref_pdb>  (73) 
x0554_0A

>  <ref_mols>  (73) 
x0554_0A,x0566_0A

>  <original SMILES>  (73) 
O=C(Nc1cccc2nc(Cl)ccc12)[C@H](CCc1ccccc1)c1nn[nH]n1

>  <IC50 (nM)>  (73) 
888.4847951071546

>  <CNNaffinity>  (73) 
6.05135

>  <rationale>  (73) 
-1

$$$$
PV_002235230166
     RDKit          3D

 24 27  0  0  0  0  0  0  0  0999 V2000
   10.8264   14.7600   23.5019 O   0  0  0  0  0  0  0  0  0  0  0  0
   11.2739   13.8457   22.8332 C   0  0  0  0  0  0  0  0  0  0  0  0
   12.5265   13.9917   21.9647 C   0  0  0  0  0  0  0  0  0  0  0  0
   12.2003   14.3168   20.5303 C   0  0  0  0  0  0  0  0  0  0  0  0
   12.4777   13.6009   19.4020 C   0  0  0  0  0  0  0  0  0  0  0  0
   12.0076   14.2802   18.2890 N   0  0  0  0  0  0  0  0  0  0  0  0
   11.3906   15.4207   18.6947 C   0  0  0  0  0  0  0  0  0  0  0  0
   10.8008   16.2835   17.8682 N   0  0  0  0  0  0  0  0  0  0  0  0
   10.2477   17.3257   18.5027 C   0  0  0  0  0  0  0  0  0  0  0  0
   10.2657   17.5205   19.9061 C   0  0  0  0  0  0  0  0  0  0  0  0
   10.8616   16.5740   20.7368 C   0  0  0  0  0  0  0  0  0  0  0  0
   11.4703   15.4810   20.1067 C   0  0  0  0  0  0  0  0  0  0  0  0
   10.7135   12.6010   22.7696 N   0  0  0  0  0  0  0  0  0  0  0  0
    9.7983   11.9855   23.6306 C   0  0  0  0  0  0  0  0  0  0  0  0
    8.9432   12.7062   24.4334 C   0  0  0  0  0  0  0  0  0  0  0  0
    7.9785   12.0444   25.2428 C   0  0  0  0  0  0  0  0  0  0  0  0
    7.8853   10.6715   25.2230 C   0  0  0  0  0  0  0  0  0  0  0  0
    8.7616    9.9079   24.4057 C   0  0  0  0  0  0  0  0  0  0  0  0
    8.5702    8.5518   24.4114 N   0  0  0  0  0  0  0  0  0  0  0  0
    9.3585    7.8317   23.6822 C   0  0  0  0  0  0  0  0  0  0  0  0
    8.9693    6.1358   23.5122 Cl  0  0  0  0  0  0  0  0  0  0  0  0
   10.4932    8.3231   22.9789 C   0  0  0  0  0  0  0  0  0  0  0  0
   10.6838    9.6803   22.9410 C   0  0  0  0  0  0  0  0  0  0  0  0
    9.7709   10.5462   23.6270 C   0  0  0  0  0  0  0  0  0  0  0  0
  1  2  2  0
  2  3  1  0
  3  4  1  0
  4  5  2  0
  5  6  1  0
  6  7  1  0
  7  8  2  0
  8  9  1  0
  9 10  2  0
 10 11  1  0
 11 12  2  0
  2 13  1  0
 13 14  1  0
 14 15  2  0
 15 16  1  0
 16 17  2  0
 17 18  1  0
 18 19  2  0
 19 20  1  0
 20 21  1  0
 20 22  2  0
 22 23  1  0
 23 24  2  0
 12  4  1  0
 24 14  1  0
 12  7  1  0
 24 18  1  0
M  END
>  <ref_pdb>  (74) 
x0554_0A

>  <ref_mols>  (74) 
x0554_0A,x0566_0A

>  <original SMILES>  (74) 
O=C(Cc1c[nH]c2ncccc12)Nc1cccc2nc(Cl)ccc12

>  <IC50 (nM)>  (74) 
890.738040490651

>  <CNNaffinity>  (74) 
6.05025

>  <rationale>  (74) 
-1

$$$$
PV_006935324151
     RDKit          3D

 25 28  0  0  0  0  0  0  0  0999 V2000
   10.0693   15.0148   24.2972 O   0  0  0  0  0  0  0  0  0  0  0  0
   10.3599   14.3031   23.3528 C   0  0  0  0  0  0  0  0  0  0  0  0
    9.7549   13.0827   23.0977 N   0  0  0  0  0  0  0  0  0  0  0  0
    9.0586   12.2642   23.9866 C   0  0  0  0  0  0  0  0  0  0  0  0
    8.2574   12.9137   25.0172 C   0  0  0  0  0  0  0  0  0  0  0  0
    7.3348   12.0300   25.7927 C   0  0  0  0  0  0  0  0  0  0  0  0
    7.4595   10.6844   25.7159 C   0  0  0  0  0  0  0  0  0  0  0  0
    8.3711   10.0692   24.8038 C   0  0  0  0  0  0  0  0  0  0  0  0
    8.3787    8.7119   24.8445 N   0  0  0  0  0  0  0  0  0  0  0  0
    9.0418    8.0800   23.9310 C   0  0  0  0  0  0  0  0  0  0  0  0
    8.7918    6.3527   23.8259 Cl  0  0  0  0  0  0  0  0  0  0  0  0
    9.8711    8.7077   22.9638 C   0  0  0  0  0  0  0  0  0  0  0  0
    9.9292   10.0814   22.9490 C   0  0  0  0  0  0  0  0  0  0  0  0
    9.1508   10.8528   23.8870 C   0  0  0  0  0  0  0  0  0  0  0  0
   11.5802   14.7195   22.3937 C   0  0  1  0  0  0  0  0  0  0  0  0
   12.7638   13.9410   22.6913 C   0  0  0  0  0  0  0  0  0  0  0  0
   12.8762   12.8732   21.7395 C   0  0  0  0  0  0  0  0  0  0  0  0
   12.5106   13.6401   20.4188 C   0  0  0  0  0  0  0  0  0  0  0  0
   11.4206   14.4906   20.8957 N   0  0  0  0  0  0  0  0  0  0  0  0
   10.7969   15.3975   20.0607 C   0  0  0  0  0  0  0  0  0  0  0  0
   10.9838   15.4285   18.6273 C   0  0  0  0  0  0  0  0  0  0  0  0
   10.3215   16.2812   17.8336 N   0  0  0  0  0  0  0  0  0  0  0  0
    9.4587   17.1222   18.4506 C   0  0  0  0  0  0  0  0  0  0  0  0
    9.2881   17.1005   19.8429 C   0  0  0  0  0  0  0  0  0  0  0  0
    9.9511   16.2611   20.6571 N   0  0  0  0  0  0  0  0  0  0  0  0
  1  2  2  0
  2  3  1  0
  3  4  1  0
  4  5  2  0
  5  6  1  0
  6  7  2  0
  7  8  1  0
  8  9  2  0
  9 10  1  0
 10 11  1  0
 10 12  2  0
 12 13  1  0
 13 14  2  0
 15  2  1  1
 15 16  1  0
 16 17  1  0
 17 18  1  0
 18 19  1  0
 19 20  1  0
 20 21  2  0
 21 22  1  0
 22 23  2  0
 23 24  1  0
 24 25  2  0
 14  4  1  0
 19 15  1  0
 25 20  1  0
 14  8  1  0
M  END
>  <ref_pdb>  (75) 
x0554_0A

>  <ref_mols>  (75) 
x0554_0A,x0566_0A

>  <original SMILES>  (75) 
O=C(Nc1cccc2nc(Cl)ccc12)[C@H]1CCCN1c1cnccn1

>  <IC50 (nM)>  (75) 
899.352611332997

>  <CNNaffinity>  (75) 
6.04607

>  <rationale>  (75) 
-1

$$$$
Z5072881377
     RDKit          3D

 24 27  0  0  0  0  0  0  0  0999 V2000
   10.0224   14.7227   17.0513 C   0  0  0  0  0  0  0  0  0  0  0  0
   10.5463   14.9783   18.4288 C   0  0  0  0  0  0  0  0  0  0  0  0
   11.4769   15.8893   18.8492 C   0  0  0  0  0  0  0  0  0  0  0  0
   11.6569   15.6545   20.1955 N   0  0  0  0  0  0  0  0  0  0  0  0
   12.6118   16.2384   21.1359 C   0  0  0  0  0  0  0  0  0  0  0  0
   13.0601   15.1637   22.1273 C   0  0  0  0  0  0  0  0  0  0  0  0
   11.8348   14.6093   22.8579 C   0  0  0  0  0  0  0  0  0  0  0  0
   10.9837   13.8806   21.7941 C   0  0  1  0  0  0  0  0  0  0  0  0
    9.6352   13.4493   22.3166 C   0  0  0  0  0  0  0  0  0  0  0  0
    8.6471   14.1508   22.3422 O   0  0  0  0  0  0  0  0  0  0  0  0
    9.7015   12.1840   22.8371 N   0  0  0  0  0  0  0  0  0  0  0  0
    8.8955   11.5519   23.7788 C   0  0  0  0  0  0  0  0  0  0  0  0
    7.9939   12.2378   24.5613 C   0  0  0  0  0  0  0  0  0  0  0  0
    7.2875   11.5671   25.5977 C   0  0  0  0  0  0  0  0  0  0  0  0
    7.4849   10.2193   25.8058 C   0  0  0  0  0  0  0  0  0  0  0  0
    8.3527    9.4847   24.9524 C   0  0  0  0  0  0  0  0  0  0  0  0
    8.3670    8.1248   25.1332 N   0  0  0  0  0  0  0  0  0  0  0  0
    8.9892    7.4227   24.2430 C   0  0  0  0  0  0  0  0  0  0  0  0
    8.6763    5.7041   24.1883 Cl  0  0  0  0  0  0  0  0  0  0  0  0
    9.8588    7.9468   23.2448 C   0  0  0  0  0  0  0  0  0  0  0  0
    9.9147    9.3041   23.0908 C   0  0  0  0  0  0  0  0  0  0  0  0
    9.0942   10.1372   23.9240 C   0  0  0  0  0  0  0  0  0  0  0  0
   10.8298   14.6148   20.5123 C   0  0  0  0  0  0  0  0  0  0  0  0
   10.1429   14.1935   19.4867 N   0  0  0  0  0  0  0  0  0  0  0  0
  1  2  1  0
  2  3  2  0
  3  4  1  0
  4  5  1  0
  5  6  1  0
  6  7  1  0
  7  8  1  0
  8  9  1  1
  9 10  2  0
  9 11  1  0
 11 12  1  0
 12 13  2  0
 13 14  1  0
 14 15  2  0
 15 16  1  0
 16 17  2  0
 17 18  1  0
 18 19  1  0
 18 20  2  0
 20 21  1  0
 21 22  2  0
  8 23  1  0
 23 24  2  0
 24  2  1  0
 23  4  1  0
 22 12  1  0
 22 16  1  0
M  END
>  <ref_pdb>  (76) 
x0554_0A

>  <ref_mols>  (76) 
x0554_0A,x0566_0A

>  <original SMILES>  (76) 
Cc1cn2c(n1)[C@H](C(=O)Nc1cccc3nc(Cl)ccc13)CCC2

>  <IC50 (nM)>  (76) 
903.3374181443697

>  <CNNaffinity>  (76) 
6.04415

>  <rationale>  (76) 
-1

$$$$
PV_007116927870
     RDKit          3D

 23 26  0  0  0  0  0  0  0  0999 V2000
   10.6445   14.8985   23.1218 O   0  0  0  0  0  0  0  0  0  0  0  0
   11.2480   13.9327   22.6904 C   0  0  0  0  0  0  0  0  0  0  0  0
   12.5487   14.0810   21.9069 C   0  0  0  0  0  0  0  0  0  0  0  0
   12.2837   14.4041   20.4704 C   0  0  0  0  0  0  0  0  0  0  0  0
   12.6748   13.8651   19.2763 C   0  0  0  0  0  0  0  0  0  0  0  0
   12.1988   14.6180   18.2392 N   0  0  0  0  0  0  0  0  0  0  0  0
   11.4814   15.5746   18.7798 C   0  0  0  0  0  0  0  0  0  0  0  0
   10.8197   16.6330   17.9850 C   0  0  0  0  0  0  0  0  0  0  0  0
    9.5208   16.3802   17.2504 C   0  0  0  0  0  0  0  0  0  0  0  0
    9.5543   17.3182   18.4159 C   0  0  0  0  0  0  0  0  0  0  0  0
   11.5110   15.4909   20.1457 N   0  0  0  0  0  0  0  0  0  0  0  0
   10.8448   12.6293   22.7912 N   0  0  0  0  0  0  0  0  0  0  0  0
    9.8897   12.0383   23.6202 C   0  0  0  0  0  0  0  0  0  0  0  0
    9.0377   12.7983   24.3927 C   0  0  0  0  0  0  0  0  0  0  0  0
    8.0195   12.1805   25.1673 C   0  0  0  0  0  0  0  0  0  0  0  0
    7.8884   10.8128   25.1637 C   0  0  0  0  0  0  0  0  0  0  0  0
    8.7749   10.0066   24.3993 C   0  0  0  0  0  0  0  0  0  0  0  0
    8.5415    8.6586   24.4371 N   0  0  0  0  0  0  0  0  0  0  0  0
    9.3075    7.8970   23.7281 C   0  0  0  0  0  0  0  0  0  0  0  0
    8.8574    6.2130   23.6103 Cl  0  0  0  0  0  0  0  0  0  0  0  0
   10.4540    8.3349   23.0088 C   0  0  0  0  0  0  0  0  0  0  0  0
   10.7000    9.6848   22.9553 C   0  0  0  0  0  0  0  0  0  0  0  0
    9.8204   10.5982   23.6299 C   0  0  0  0  0  0  0  0  0  0  0  0
  1  2  2  0
  2  3  1  0
  3  4  1  0
  4  5  2  0
  5  6  1  0
  6  7  2  0
  7  8  1  0
  8  9  1  0
  9 10  1  0
  7 11  1  0
  2 12  1  0
 12 13  1  0
 13 14  2  0
 14 15  1  0
 15 16  2  0
 16 17  1  0
 17 18  2  0
 18 19  1  0
 19 20  1  0
 19 21  2  0
 21 22  1  0
 22 23  2  0
 11  4  1  0
 23 13  1  0
 10  8  1  0
 23 17  1  0
M  END
>  <ref_pdb>  (77) 
x0554_0A

>  <ref_mols>  (77) 
x0554_0A,x0566_0A

>  <original SMILES>  (77) 
O=C(Cc1cnc(C2CC2)[nH]1)Nc1cccc2nc(Cl)ccc12

>  <IC50 (nM)>  (77) 
904.357198852246

>  <CNNaffinity>  (77) 
6.04366

>  <rationale>  (77) 
-1

$$$$
PV_002273178927
     RDKit          3D

 23 25  0  0  0  0  0  0  0  0999 V2000
    9.8845   17.4468   19.2153 C   0  0  0  0  0  0  0  0  0  0  0  0
   10.7640   16.3462   19.7162 C   0  0  0  0  0  0  0  0  0  0  0  0
   11.0838   16.2721   21.0046 N   0  0  0  0  0  0  0  0  0  0  0  0
   11.8600   15.1940   21.1341 N   0  0  0  0  0  0  0  0  0  0  0  0
   12.4181   14.8847   22.4163 C   0  0  0  0  0  0  0  0  0  0  0  0
   11.4145   14.2661   23.3755 C   0  0  0  0  0  0  0  0  0  0  0  0
   11.2818   14.6928   24.5047 O   0  0  0  0  0  0  0  0  0  0  0  0
   10.7326   13.1870   22.8920 N   0  0  0  0  0  0  0  0  0  0  0  0
    9.7533   12.4596   23.5984 C   0  0  0  0  0  0  0  0  0  0  0  0
    8.7936   13.1081   24.3465 C   0  0  0  0  0  0  0  0  0  0  0  0
    7.7265   12.3868   24.9508 C   0  0  0  0  0  0  0  0  0  0  0  0
    7.6619   11.0184   24.8159 C   0  0  0  0  0  0  0  0  0  0  0  0
    8.6696   10.3219   24.0956 C   0  0  0  0  0  0  0  0  0  0  0  0
    8.5398    8.9595   24.0323 N   0  0  0  0  0  0  0  0  0  0  0  0
    9.4542    8.2983   23.3961 C   0  0  0  0  0  0  0  0  0  0  0  0
    9.2015    6.5810   23.1928 Cl  0  0  0  0  0  0  0  0  0  0  0  0
   10.6222    8.8676   22.8143 C   0  0  0  0  0  0  0  0  0  0  0  0
   10.7597   10.2334   22.8596 C   0  0  0  0  0  0  0  0  0  0  0  0
    9.7501   11.0296   23.4871 C   0  0  0  0  0  0  0  0  0  0  0  0
   12.0269   14.4781   19.9610 C   0  0  0  0  0  0  0  0  0  0  0  0
   12.6785   13.2978   19.8569 C   0  0  0  0  0  0  0  0  0  0  0  0
   11.3379   15.2835   19.0105 C   0  0  0  0  0  0  0  0  0  0  0  0
   11.2753   14.9794   17.3201 Cl  0  0  0  0  0  0  0  0  0  0  0  0
  1  2  1  0
  2  3  2  0
  3  4  1  0
  4  5  1  0
  5  6  1  0
  6  7  2  0
  6  8  1  0
  8  9  1  0
  9 10  2  0
 10 11  1  0
 11 12  2  0
 12 13  1  0
 13 14  2  0
 14 15  1  0
 15 16  1  0
 15 17  2  0
 17 18  1  0
 18 19  2  0
  4 20  1  0
 20 21  1  0
 20 22  2  0
 22 23  1  0
 22  2  1  0
 19  9  1  0
 19 13  1  0
M  END
>  <ref_pdb>  (78) 
x0554_0A

>  <ref_mols>  (78) 
x0554_0A,x0566_0A

>  <original SMILES>  (78) 
Cc1nn(CC(=O)Nc2cccc3nc(Cl)ccc23)c(C)c1Cl

>  <IC50 (nM)>  (78) 
906.7968441124759

>  <CNNaffinity>  (78) 
6.04249

>  <rationale>  (78) 
-1

$$$$
PV_006919161678
     RDKit          3D

 25 28  0  0  0  0  0  0  0  0999 V2000
   11.2997   14.2178   24.0284 O   0  0  0  0  0  0  0  0  0  0  0  0
   11.3676   13.5945   22.9855 C   0  0  0  0  0  0  0  0  0  0  0  0
   12.3389   13.9814   21.8839 C   0  0  0  0  0  0  0  0  0  0  0  0
   12.5359   15.4924   21.7165 C   0  0  0  0  0  0  0  0  0  0  0  0
   11.4649   16.2163   21.0368 N   0  0  0  0  0  0  0  0  0  0  0  0
   10.6314   17.0103   21.7374 N   0  0  0  0  0  0  0  0  0  0  0  0
    9.8356   17.5733   20.8436 C   0  0  0  0  0  0  0  0  0  0  0  0
   10.1460   17.1614   19.5349 C   0  0  0  0  0  0  0  0  0  0  0  0
   11.1864   16.2711   19.7082 C   0  0  0  0  0  0  0  0  0  0  0  0
   11.8040   15.4586   18.6118 C   0  0  0  0  0  0  0  0  0  0  0  0
   11.5439   16.1276   17.2499 C   0  0  0  0  0  0  0  0  0  0  0  0
   10.0692   16.5479   17.0913 C   0  0  0  0  0  0  0  0  0  0  0  0
    9.6261   17.5575   18.1728 C   0  0  0  0  0  0  0  0  0  0  0  0
   10.6399   12.4681   22.7336 N   0  0  0  0  0  0  0  0  0  0  0  0
    9.7518   11.8541   23.6288 C   0  0  0  0  0  0  0  0  0  0  0  0
    8.9031   12.6073   24.4091 C   0  0  0  0  0  0  0  0  0  0  0  0
    7.9207   11.9841   25.2241 C   0  0  0  0  0  0  0  0  0  0  0  0
    7.8279   10.6107   25.2559 C   0  0  0  0  0  0  0  0  0  0  0  0
    8.7128    9.8158   24.4789 C   0  0  0  0  0  0  0  0  0  0  0  0
    8.5313    8.4620   24.5439 N   0  0  0  0  0  0  0  0  0  0  0  0
    9.2911    7.7151   23.8117 C   0  0  0  0  0  0  0  0  0  0  0  0
    8.8753    6.0186   23.7119 Cl  0  0  0  0  0  0  0  0  0  0  0  0
   10.4094    8.1783   23.0610 C   0  0  0  0  0  0  0  0  0  0  0  0
   10.6126    9.5327   22.9865 C   0  0  0  0  0  0  0  0  0  0  0  0
    9.7183   10.4204   23.6673 C   0  0  0  0  0  0  0  0  0  0  0  0
  1  2  2  0
  2  3  1  0
  3  4  1  0
  4  5  1  0
  5  6  1  0
  6  7  2  0
  7  8  1  0
  8  9  2  0
  9 10  1  0
 10 11  1  0
 11 12  1  0
 12 13  1  0
  2 14  1  0
 14 15  1  0
 15 16  2  0
 16 17  1  0
 17 18  2  0
 18 19  1  0
 19 20  2  0
 20 21  1  0
 21 22  1  0
 21 23  2  0
 23 24  1  0
 24 25  2  0
  9  5  1  0
 25 15  1  0
 13  8  1  0
 25 19  1  0
M  END
>  <ref_pdb>  (79) 
x0554_0A

>  <ref_mols>  (79) 
x0554_0A,x0566_0A

>  <original SMILES>  (79) 
O=C(CCn1ncc2c1CCCC2)Nc1cccc2nc(Cl)ccc12

>  <IC50 (nM)>  (79) 
908.0504960425232

>  <CNNaffinity>  (79) 
6.04189

>  <rationale>  (79) 
-1

$$$$
PV_002229259454
     RDKit          3D

 23 26  0  0  0  0  0  0  0  0999 V2000
    8.6941   14.1584   21.9670 O   0  0  0  0  0  0  0  0  0  0  0  0
    9.7423   13.5627   22.0639 C   0  0  0  0  0  0  0  0  0  0  0  0
    9.9089   12.3597   22.7184 N   0  0  0  0  0  0  0  0  0  0  0  0
    9.0914   11.6824   23.6194 C   0  0  0  0  0  0  0  0  0  0  0  0
    8.1699   12.3417   24.4016 C   0  0  0  0  0  0  0  0  0  0  0  0
    7.4448   11.6441   25.4068 C   0  0  0  0  0  0  0  0  0  0  0  0
    7.6205   10.2899   25.5683 C   0  0  0  0  0  0  0  0  0  0  0  0
    8.5035    9.5804   24.7126 C   0  0  0  0  0  0  0  0  0  0  0  0
    8.4875    8.2167   24.8407 N   0  0  0  0  0  0  0  0  0  0  0  0
    9.1667    7.5317   23.9821 C   0  0  0  0  0  0  0  0  0  0  0  0
    8.8181    5.8183   23.8655 Cl  0  0  0  0  0  0  0  0  0  0  0  0
   10.1280    8.0831   23.0883 C   0  0  0  0  0  0  0  0  0  0  0  0
   10.1990    9.4491   22.9836 C   0  0  0  0  0  0  0  0  0  0  0  0
    9.3012   10.2649   23.7502 C   0  0  0  0  0  0  0  0  0  0  0  0
   11.0830   14.0661   21.5812 C   0  0  2  0  0  0  0  0  0  0  0  0
   11.8162   14.9439   22.6431 C   0  0  0  0  0  0  0  0  0  0  0  0
   13.2311   15.1309   22.0888 C   0  0  0  0  0  0  0  0  0  0  0  0
   13.2643   15.9155   20.7714 C   0  0  0  0  0  0  0  0  0  0  0  0
   12.1772   15.4441   19.8565 C   0  0  0  0  0  0  0  0  0  0  0  0
   11.0984   14.6891   20.2304 C   0  0  0  0  0  0  0  0  0  0  0  0
   10.2771   14.4361   19.1665 N   0  0  0  0  0  0  0  0  0  0  0  0
   10.8487   15.0371   18.1564 C   0  0  0  0  0  0  0  0  0  0  0  0
   12.0024   15.6742   18.5118 N   0  0  0  0  0  0  0  0  0  0  0  0
  1  2  2  0
  2  3  1  0
  3  4  1  0
  4  5  2  0
  5  6  1  0
  6  7  2  0
  7  8  1  0
  8  9  2  0
  9 10  1  0
 10 11  1  0
 10 12  2  0
 12 13  1  0
 13 14  2  0
 15  2  1  1
 15 16  1  0
 16 17  1  0
 17 18  1  0
 18 19  1  0
 19 20  2  0
 20 21  1  0
 21 22  2  0
 22 23  1  0
 14  4  1  0
 20 15  1  0
 14  8  1  0
 23 19  1  0
M  END
>  <ref_pdb>  (80) 
x0554_0A

>  <ref_mols>  (80) 
x0554_0A,x0566_0A

>  <original SMILES>  (80) 
O=C(Nc1cccc2nc(Cl)ccc12)[C@@H]1CCCc2[nH]cnc21

>  <IC50 (nM)>  (80) 
919.9410530439588

>  <CNNaffinity>  (80) 
6.03624

>  <rationale>  (80) 
-1

$$$$
PV_002221297256
     RDKit          3D

 23 26  0  0  0  0  0  0  0  0999 V2000
    9.4280   14.7987   23.1608 O   0  0  0  0  0  0  0  0  0  0  0  0
   10.1202   13.9301   22.6491 C   0  0  0  0  0  0  0  0  0  0  0  0
    9.7636   12.5993   22.6892 N   0  0  0  0  0  0  0  0  0  0  0  0
    8.9380   11.9959   23.6277 C   0  0  0  0  0  0  0  0  0  0  0  0
    8.1063   12.7509   24.4600 C   0  0  0  0  0  0  0  0  0  0  0  0
    7.3587   12.1396   25.4715 C   0  0  0  0  0  0  0  0  0  0  0  0
    7.4795   10.7611   25.6622 C   0  0  0  0  0  0  0  0  0  0  0  0
    8.2895    9.9935   24.8277 C   0  0  0  0  0  0  0  0  0  0  0  0
    8.3048    8.6741   25.0470 N   0  0  0  0  0  0  0  0  0  0  0  0
    8.9234    7.8891   24.1537 C   0  0  0  0  0  0  0  0  0  0  0  0
    8.6501    6.1703   24.2211 Cl  0  0  0  0  0  0  0  0  0  0  0  0
    9.6571    8.4077   23.0881 C   0  0  0  0  0  0  0  0  0  0  0  0
    9.7371    9.7853   22.9027 C   0  0  0  0  0  0  0  0  0  0  0  0
    9.0016   10.6032   23.7723 C   0  0  0  0  0  0  0  0  0  0  0  0
   11.4538   14.2601   21.9740 C   0  0  0  0  0  0  0  0  0  0  0  0
   11.2973   15.0112   20.7275 N   0  0  0  0  0  0  0  0  0  0  0  0
   11.4576   14.4722   19.4589 C   0  0  0  0  0  0  0  0  0  0  0  0
   11.0383   15.4225   18.5894 C   0  0  0  0  0  0  0  0  0  0  0  0
   10.9473   15.2420   16.6928 Br  0  0  0  0  0  0  0  0  0  0  0  0
   10.6441   16.5497   19.4078 C   0  0  0  0  0  0  0  0  0  0  0  0
   10.8052   16.2826   20.6839 N   0  0  0  0  0  0  0  0  0  0  0  0
   12.7418   14.4099   22.8084 C   0  0  0  0  0  0  0  0  0  0  0  0
   12.5241   13.1549   21.9749 C   0  0  0  0  0  0  0  0  0  0  0  0
  1  2  2  0
  2  3  1  0
  3  4  1  0
  4  5  2  0
  5  6  1  0
  6  7  2  0
  7  8  1  0
  8  9  2  0
  9 10  1  0
 10 11  1  0
 10 12  2  0
 12 13  1  0
 13 14  2  0
  2 15  1  0
 15 16  1  0
 16 17  1  0
 17 18  2  0
 18 19  1  0
 18 20  1  0
 20 21  2  0
 15 22  1  0
 22 23  1  0
 14  4  1  0
 23 15  1  0
 14  8  1  0
 21 16  1  0
M  END
>  <ref_pdb>  (81) 
x0554_0A

>  <ref_mols>  (81) 
x0554_0A,x0566_0A

>  <original SMILES>  (81) 
O=C(Nc1cccc2nc(Cl)ccc12)C1(n2cc(Br)cn2)CC1

>  <IC50 (nM)>  (81) 
922.698893912576

>  <CNNaffinity>  (81) 
6.03494

>  <rationale>  (81) 
-1

$$$$
PV_002558974955
     RDKit          3D

 24 26  0  0  0  0  0  0  0  0999 V2000
    9.6631   14.1372   16.1144 C   0  0  0  0  0  0  0  0  0  0  0  0
   10.8374   15.1027   16.0604 C   0  0  0  0  0  0  0  0  0  0  0  0
   10.8446   15.9692   17.2035 O   0  0  0  0  0  0  0  0  0  0  0  0
   11.3192   15.4267   18.3675 C   0  0  0  0  0  0  0  0  0  0  0  0
   12.0228   14.2334   18.5186 C   0  0  0  0  0  0  0  0  0  0  0  0
   12.4305   13.8055   19.7319 C   0  0  0  0  0  0  0  0  0  0  0  0
   12.1473   14.6311   20.8771 C   0  0  0  0  0  0  0  0  0  0  0  0
   12.5877   14.2819   22.2498 C   0  0  0  0  0  0  0  0  0  0  0  0
   11.3400   14.0049   23.0535 C   0  0  0  0  0  0  0  0  0  0  0  0
   10.7914   14.8740   23.6973 O   0  0  0  0  0  0  0  0  0  0  0  0
   10.8866   12.7165   22.9457 N   0  0  0  0  0  0  0  0  0  0  0  0
    9.8813   12.0742   23.6792 C   0  0  0  0  0  0  0  0  0  0  0  0
    8.9649   12.8004   24.4109 C   0  0  0  0  0  0  0  0  0  0  0  0
    7.9501   12.1525   25.1593 C   0  0  0  0  0  0  0  0  0  0  0  0
    7.8601   10.7833   25.1527 C   0  0  0  0  0  0  0  0  0  0  0  0
    8.7713   10.0123   24.3830 C   0  0  0  0  0  0  0  0  0  0  0  0
    8.5574    8.6617   24.3974 N   0  0  0  0  0  0  0  0  0  0  0  0
    9.3345    7.9198   23.6807 C   0  0  0  0  0  0  0  0  0  0  0  0
    8.9134    6.2291   23.5425 Cl  0  0  0  0  0  0  0  0  0  0  0  0
   10.4711    8.3887   22.9671 C   0  0  0  0  0  0  0  0  0  0  0  0
   10.6990    9.7423   22.9370 C   0  0  0  0  0  0  0  0  0  0  0  0
    9.8192   10.6337   23.6374 C   0  0  0  0  0  0  0  0  0  0  0  0
   11.4618   15.7655   20.7657 N   0  0  0  0  0  0  0  0  0  0  0  0
   11.0763   16.1551   19.5497 C   0  0  0  0  0  0  0  0  0  0  0  0
  1  2  1  0
  2  3  1  0
  3  4  1  0
  4  5  2  0
  5  6  1  0
  6  7  2  0
  7  8  1  0
  8  9  1  0
  9 10  2  0
  9 11  1  0
 11 12  1  0
 12 13  2  0
 13 14  1  0
 14 15  2  0
 15 16  1  0
 16 17  2  0
 17 18  1  0
 18 19  1  0
 18 20  2  0
 20 21  1  0
 21 22  2  0
  7 23  1  0
 23 24  2  0
 24  4  1  0
 22 12  1  0
 22 16  1  0
M  END
>  <ref_pdb>  (82) 
x0554_0A

>  <ref_mols>  (82) 
x0554_0A,x0566_0A

>  <original SMILES>  (82) 
CCOc1ccc(CC(=O)Nc2cccc3nc(Cl)ccc23)nc1

>  <IC50 (nM)>  (82) 
923.5491224845767

>  <CNNaffinity>  (82) 
6.03454

>  <rationale>  (82) 
-1

$$$$
PV_006746822449
     RDKit          3D

 27 30  0  0  0  0  0  0  0  0999 V2000
    9.2547   16.8248   15.7716 C   0  0  0  0  0  0  0  0  0  0  0  0
    9.5371   17.1045   17.1430 O   0  0  0  0  0  0  0  0  0  0  0  0
    9.8689   16.0594   17.9178 C   0  0  0  0  0  0  0  0  0  0  0  0
    9.8105   14.9003   17.5451 O   0  0  0  0  0  0  0  0  0  0  0  0
   10.3374   16.4560   19.2823 C   0  0  0  0  0  0  0  0  0  0  0  0
   10.1959   17.6716   19.8287 N   0  0  0  0  0  0  0  0  0  0  0  0
   10.8341   17.5842   20.9916 N   0  0  0  0  0  0  0  0  0  0  0  0
   11.4231   16.3796   21.1990 C   0  0  0  0  0  0  0  0  0  0  0  0
   11.0666   15.5929   20.1327 C   0  0  0  0  0  0  0  0  0  0  0  0
   11.4546   14.1345   20.0197 C   0  0  0  0  0  0  0  0  0  0  0  0
   11.8711   13.5860   21.4099 C   0  0  2  0  0  0  0  0  0  0  0  0
   10.6359   13.3571   22.2993 C   0  0  0  0  0  0  0  0  0  0  0  0
    9.9144   14.2673   22.6638 O   0  0  0  0  0  0  0  0  0  0  0  0
   10.4299   12.0510   22.6537 N   0  0  0  0  0  0  0  0  0  0  0  0
    9.5428   11.5223   23.5962 C   0  0  0  0  0  0  0  0  0  0  0  0
    8.6835   12.3144   24.3324 C   0  0  0  0  0  0  0  0  0  0  0  0
    7.8218   11.7414   25.3047 C   0  0  0  0  0  0  0  0  0  0  0  0
    7.8048   10.3801   25.4993 C   0  0  0  0  0  0  0  0  0  0  0  0
    8.6333    9.5411   24.7073 C   0  0  0  0  0  0  0  0  0  0  0  0
    8.4602    8.1926   24.8758 N   0  0  0  0  0  0  0  0  0  0  0  0
    9.1187    7.4102   24.0875 C   0  0  0  0  0  0  0  0  0  0  0  0
    8.6907    5.7142   24.0688 Cl  0  0  0  0  0  0  0  0  0  0  0  0
   10.1813    7.8230   23.2364 C   0  0  0  0  0  0  0  0  0  0  0  0
   10.4006    9.1637   23.0833 C   0  0  0  0  0  0  0  0  0  0  0  0
    9.5567   10.0961   23.7710 C   0  0  0  0  0  0  0  0  0  0  0  0
   12.8439   14.5515   22.1052 C   0  0  0  0  0  0  0  0  0  0  0  0
   12.2295   15.9302   22.3711 C   0  0  0  0  0  0  0  0  0  0  0  0
  1  2  1  0
  2  3  1  0
  3  4  2  0
  3  5  1  0
  5  6  2  0
  6  7  1  0
  7  8  1  0
  8  9  2  0
  9 10  1  0
 10 11  1  0
 11 12  1  1
 12 13  2  0
 12 14  1  0
 14 15  1  0
 15 16  2  0
 16 17  1  0
 17 18  2  0
 18 19  1  0
 19 20  2  0
 20 21  1  0
 21 22  1  0
 21 23  2  0
 23 24  1  0
 24 25  2  0
 11 26  1  0
 26 27  1  0
  9  5  1  0
 25 15  1  0
 27  8  1  0
 25 19  1  0
M  END
>  <ref_pdb>  (83) 
x0554_0A

>  <ref_mols>  (83) 
x0554_0A,x0566_0A

>  <original SMILES>  (83) 
COC(=O)c1n[nH]c2c1C[C@H](C(=O)Nc1cccc3nc(Cl)ccc13)CC2

>  <IC50 (nM)>  (83) 
926.445764158151

>  <CNNaffinity>  (83) 
6.03318

>  <rationale>  (83) 
-1

$$$$
PV_002547808230
     RDKit          3D

 25 27  0  0  0  0  0  0  0  0999 V2000
   11.9186   14.6405   17.4361 N   0  0  0  0  0  0  0  0  0  0  0  0
   12.4693   15.1202   18.6002 C   0  0  0  0  0  0  0  0  0  0  0  0
   13.5961   14.7775   18.8952 O   0  0  0  0  0  0  0  0  0  0  0  0
   11.6370   16.0601   19.4252 C   0  0  0  0  0  0  0  0  0  0  0  0
   10.7461   16.9534   18.7972 C   0  0  0  0  0  0  0  0  0  0  0  0
    9.9302   17.7893   19.5561 C   0  0  0  0  0  0  0  0  0  0  0  0
    9.9608   17.7121   20.9529 C   0  0  0  0  0  0  0  0  0  0  0  0
   10.8706   16.8573   21.5775 C   0  0  0  0  0  0  0  0  0  0  0  0
   11.7791   16.0928   20.8321 C   0  0  0  0  0  0  0  0  0  0  0  0
   12.8673   15.3392   21.5756 C   0  0  0  0  0  0  0  0  0  0  0  0
   12.4774   13.8871   21.8763 C   0  0  0  0  0  0  0  0  0  0  0  0
   11.3206   13.7247   22.8544 C   0  0  0  0  0  0  0  0  0  0  0  0
   11.0363   14.5607   23.6957 O   0  0  0  0  0  0  0  0  0  0  0  0
   10.6710   12.5298   22.7260 N   0  0  0  0  0  0  0  0  0  0  0  0
    9.7807   11.9214   23.6162 C   0  0  0  0  0  0  0  0  0  0  0  0
    8.9335   12.6588   24.4140 C   0  0  0  0  0  0  0  0  0  0  0  0
    7.9710   12.0105   25.2350 C   0  0  0  0  0  0  0  0  0  0  0  0
    7.8719   10.6375   25.2323 C   0  0  0  0  0  0  0  0  0  0  0  0
    8.7431    9.8598   24.4237 C   0  0  0  0  0  0  0  0  0  0  0  0
    8.5508    8.5048   24.4480 N   0  0  0  0  0  0  0  0  0  0  0  0
    9.3309    7.7752   23.7196 C   0  0  0  0  0  0  0  0  0  0  0  0
    8.9320    6.0793   23.5584 Cl  0  0  0  0  0  0  0  0  0  0  0  0
   10.4654    8.2566   23.0072 C   0  0  0  0  0  0  0  0  0  0  0  0
   10.6652    9.6120   22.9610 C   0  0  0  0  0  0  0  0  0  0  0  0
    9.7515   10.4848   23.6347 C   0  0  0  0  0  0  0  0  0  0  0  0
  1  2  1  0
  2  3  2  0
  2  4  1  0
  4  5  2  0
  5  6  1  0
  6  7  2  0
  7  8  1  0
  8  9  2  0
  9 10  1  0
 10 11  1  0
 11 12  1  0
 12 13  2  0
 12 14  1  0
 14 15  1  0
 15 16  2  0
 16 17  1  0
 17 18  2  0
 18 19  1  0
 19 20  2  0
 20 21  1  0
 21 22  1  0
 21 23  2  0
 23 24  1  0
 24 25  2  0
  9  4  1  0
 25 15  1  0
 25 19  1  0
M  END
>  <ref_pdb>  (84) 
x0554_0A

>  <ref_mols>  (84) 
x0554_0A,x0566_0A

>  <original SMILES>  (84) 
NC(=O)c1ccccc1CCC(=O)Nc1cccc2nc(Cl)ccc12

>  <IC50 (nM)>  (84) 
928.2180299186945

>  <CNNaffinity>  (84) 
6.03235

>  <rationale>  (84) 
-1

$$$$
PV_006716604958
     RDKit          3D

 24 26  0  0  0  0  0  0  0  0999 V2000
   10.7644   14.7704   23.5738 O   0  0  0  0  0  0  0  0  0  0  0  0
   11.2146   13.8957   22.8619 C   0  0  0  0  0  0  0  0  0  0  0  0
   12.4679   14.1386   22.0220 C   0  0  0  0  0  0  0  0  0  0  0  0
   12.1368   14.4600   20.6483 N   0  0  0  0  0  0  0  0  0  0  0  0
   11.6101   15.5993   20.1512 C   0  0  0  0  0  0  0  0  0  0  0  0
   11.4319   15.3208   18.8111 C   0  0  0  0  0  0  0  0  0  0  0  0
   10.9559   16.1798   17.6737 C   0  0  0  0  0  0  0  0  0  0  0  0
   10.4223   15.4529   16.6878 F   0  0  0  0  0  0  0  0  0  0  0  0
   11.9669   16.8949   17.1491 F   0  0  0  0  0  0  0  0  0  0  0  0
   10.0248   17.0612   18.0885 F   0  0  0  0  0  0  0  0  0  0  0  0
   11.8579   14.0521   18.5841 N   0  0  0  0  0  0  0  0  0  0  0  0
   12.2707   13.5423   19.6905 N   0  0  0  0  0  0  0  0  0  0  0  0
   10.6775   12.6445   22.7133 N   0  0  0  0  0  0  0  0  0  0  0  0
    9.7868   11.9846   23.5799 C   0  0  0  0  0  0  0  0  0  0  0  0
    8.9373   12.6945   24.4052 C   0  0  0  0  0  0  0  0  0  0  0  0
    7.9908   12.0254   25.2278 C   0  0  0  0  0  0  0  0  0  0  0  0
    7.9069   10.6535   25.2109 C   0  0  0  0  0  0  0  0  0  0  0  0
    8.7768    9.8981   24.3819 C   0  0  0  0  0  0  0  0  0  0  0  0
    8.5867    8.5429   24.3942 N   0  0  0  0  0  0  0  0  0  0  0  0
    9.3768    7.8209   23.6693 C   0  0  0  0  0  0  0  0  0  0  0  0
    8.9720    6.1272   23.4977 Cl  0  0  0  0  0  0  0  0  0  0  0  0
   10.5168    8.3163   22.9768 C   0  0  0  0  0  0  0  0  0  0  0  0
   10.7041    9.6760   22.9252 C   0  0  0  0  0  0  0  0  0  0  0  0
    9.7775   10.5439   23.5911 C   0  0  0  0  0  0  0  0  0  0  0  0
  1  2  2  0
  2  3  1  0
  3  4  1  0
  4  5  1  0
  5  6  2  0
  6  7  1  0
  7  8  1  0
  7  9  1  0
  7 10  1  0
  6 11  1  0
 11 12  2  0
  2 13  1  0
 13 14  1  0
 14 15  2  0
 15 16  1  0
 16 17  2  0
 17 18  1  0
 18 19  2  0
 19 20  1  0
 20 21  1  0
 20 22  2  0
 22 23  1  0
 23 24  2  0
 12  4  1  0
 24 14  1  0
 24 18  1  0
M  END
>  <ref_pdb>  (85) 
x0554_0A

>  <ref_mols>  (85) 
x0554_0A,x0566_0A

>  <original SMILES>  (85) 
O=C(Cn1cc(C(F)(F)F)nn1)Nc1cccc2nc(Cl)ccc12

>  <IC50 (nM)>  (85) 
928.9663867799363

>  <CNNaffinity>  (85) 
6.032

>  <rationale>  (85) 
-1

$$$$
PV_006848432662
     RDKit          3D

 24 27  0  0  0  0  0  0  0  0999 V2000
   10.9435   14.6549   23.7847 O   0  0  0  0  0  0  0  0  0  0  0  0
   11.2788   13.8454   22.9411 C   0  0  0  0  0  0  0  0  0  0  0  0
   12.4300   14.1139   21.9543 C   0  0  0  0  0  0  0  0  0  0  0  0
   12.0642   14.3945   20.5070 C   0  0  0  0  0  0  0  0  0  0  0  0
   12.3861   13.6631   19.3993 C   0  0  0  0  0  0  0  0  0  0  0  0
   11.9592   14.2978   18.2461 N   0  0  0  0  0  0  0  0  0  0  0  0
   11.3187   15.4648   18.6158 C   0  0  0  0  0  0  0  0  0  0  0  0
   10.7125   16.4933   17.8816 C   0  0  0  0  0  0  0  0  0  0  0  0
   10.1605   17.5386   18.6185 C   0  0  0  0  0  0  0  0  0  0  0  0
   10.2387   17.5278   20.0346 C   0  0  0  0  0  0  0  0  0  0  0  0
   10.8413   16.5876   20.7528 N   0  0  0  0  0  0  0  0  0  0  0  0
   11.3683   15.5614   20.0351 C   0  0  0  0  0  0  0  0  0  0  0  0
   10.7151   12.6044   22.8129 N   0  0  0  0  0  0  0  0  0  0  0  0
    9.7933   11.9715   23.6589 C   0  0  0  0  0  0  0  0  0  0  0  0
    8.9229   12.6863   24.4533 C   0  0  0  0  0  0  0  0  0  0  0  0
    7.9521   12.0191   25.2510 C   0  0  0  0  0  0  0  0  0  0  0  0
    7.8641   10.6465   25.2277 C   0  0  0  0  0  0  0  0  0  0  0  0
    8.7506    9.8876   24.4163 C   0  0  0  0  0  0  0  0  0  0  0  0
    8.5656    8.5307   24.4198 N   0  0  0  0  0  0  0  0  0  0  0  0
    9.3538    7.8160   23.6863 C   0  0  0  0  0  0  0  0  0  0  0  0
    8.9676    6.1182   23.5166 Cl  0  0  0  0  0  0  0  0  0  0  0  0
   10.4854    8.3158   22.9832 C   0  0  0  0  0  0  0  0  0  0  0  0
   10.6761    9.6739   22.9516 C   0  0  0  0  0  0  0  0  0  0  0  0
    9.7624   10.5333   23.6436 C   0  0  0  0  0  0  0  0  0  0  0  0
  1  2  2  0
  2  3  1  0
  3  4  1  0
  4  5  2  0
  5  6  1  0
  6  7  1  0
  7  8  2  0
  8  9  1  0
  9 10  2  0
 10 11  1  0
 11 12  2  0
  2 13  1  0
 13 14  1  0
 14 15  2  0
 15 16  1  0
 16 17  2  0
 17 18  1  0
 18 19  2  0
 19 20  1  0
 20 21  1  0
 20 22  2  0
 22 23  1  0
 23 24  2  0
 12  4  1  0
 24 14  1  0
 12  7  1  0
 24 18  1  0
M  END
>  <ref_pdb>  (86) 
x0554_0A

>  <ref_mols>  (86) 
x0554_0A,x0566_0A

>  <original SMILES>  (86) 
O=C(Cc1c[nH]c2cccnc12)Nc1cccc2nc(Cl)ccc12

>  <IC50 (nM)>  (86) 
930.4649110312401

>  <CNNaffinity>  (86) 
6.0313

>  <rationale>  (86) 
-1

$$$$
Z5456331492
     RDKit          3D

 24 27  0  0  0  0  0  0  0  0999 V2000
    9.3730   16.1944   17.2252 C   0  0  0  0  0  0  0  0  0  0  0  0
   11.0658   15.7485   17.3140 S   0  0  0  0  0  6  0  0  0  0  0  0
   11.2275   14.6426   16.3830 O   0  0  0  0  0  0  0  0  0  0  0  0
   11.8633   16.9575   17.2098 O   0  0  0  0  0  0  0  0  0  0  0  0
   11.3211   15.1207   19.0474 C   0  0  1  0  0  0  0  0  0  0  0  0
   11.0038   13.7168   19.6323 C   0  0  0  0  0  0  0  0  0  0  0  0
   11.8595   14.4553   20.6852 C   0  0  1  0  0  0  0  0  0  0  0  0
   12.4178   13.9544   22.0301 C   0  0  0  0  0  0  0  0  0  0  0  0
   11.3040   13.7350   23.0375 C   0  0  0  0  0  0  0  0  0  0  0  0
   10.9036   14.6154   23.7718 O   0  0  0  0  0  0  0  0  0  0  0  0
   10.8073   12.4619   23.0175 N   0  0  0  0  0  0  0  0  0  0  0  0
    9.8119   11.8763   23.8011 C   0  0  0  0  0  0  0  0  0  0  0  0
    8.9049   12.6241   24.5231 C   0  0  0  0  0  0  0  0  0  0  0  0
    7.8656   11.9879   25.2556 C   0  0  0  0  0  0  0  0  0  0  0  0
    7.7722   10.6157   25.2718 C   0  0  0  0  0  0  0  0  0  0  0  0
    8.7028    9.8262   24.5418 C   0  0  0  0  0  0  0  0  0  0  0  0
    8.5073    8.4726   24.5825 N   0  0  0  0  0  0  0  0  0  0  0  0
    9.2484    7.7300   23.8295 C   0  0  0  0  0  0  0  0  0  0  0  0
    8.8161    6.0380   23.7012 Cl  0  0  0  0  0  0  0  0  0  0  0  0
   10.3581    8.1987   23.0740 C   0  0  0  0  0  0  0  0  0  0  0  0
   10.6017    9.5483   23.0540 C   0  0  0  0  0  0  0  0  0  0  0  0
    9.7431   10.4385   23.7819 C   0  0  0  0  0  0  0  0  0  0  0  0
   12.7714   14.9236   19.5690 C   0  0  0  0  0  0  0  0  0  0  0  0
   10.9589   15.6955   20.4588 C   0  0  0  0  0  0  0  0  0  0  0  0
  1  2  1  0
  2  3  2  0
  2  4  2  0
  5  2  1  6
  5  6  1  0
  6  7  1  0
  7  8  1  1
  8  9  1  0
  9 10  2  0
  9 11  1  0
 11 12  1  0
 12 13  2  0
 13 14  1  0
 14 15  2  0
 15 16  1  0
 16 17  2  0
 17 18  1  0
 18 19  1  0
 18 20  2  0
 20 21  1  0
 21 22  2  0
  7 23  1  0
  7 24  1  0
 23  5  1  0
 24  5  1  0
 22 12  1  0
 22 16  1  0
M  END
>  <ref_pdb>  (87) 
x0554_0A

>  <ref_mols>  (87) 
x0554_0A,x0566_0A

>  <original SMILES>  (87) 
CS(=O)(=O)[C@]12C[C@](CC(=O)Nc3cccc4nc(Cl)ccc34)(C1)C2

>  <IC50 (nM)>  (87) 
933.3402606531674

>  <CNNaffinity>  (87) 
6.02996

>  <rationale>  (87) 
-1

$$$$
PV_002410235767
     RDKit          3D

 24 27  0  0  0  0  0  0  0  0999 V2000
   10.6479   14.8702   23.4127 O   0  0  0  0  0  0  0  0  0  0  0  0
   11.1846   13.9886   22.7750 C   0  0  0  0  0  0  0  0  0  0  0  0
   12.3988   14.2778   21.9469 C   0  0  0  0  0  0  0  0  0  0  0  0
   11.8750   14.7415   20.6546 C   0  0  0  0  0  0  0  0  0  0  0  0
   11.7205   16.0269   20.4039 N   0  0  0  0  0  0  0  0  0  0  0  0
   11.2647   15.9954   19.1287 N   0  0  0  0  0  0  0  0  0  0  0  0
   10.9447   17.0558   18.3283 C   0  0  0  0  0  0  0  0  0  0  0  0
   10.5566   16.7700   17.0479 C   0  0  0  0  0  0  0  0  0  0  0  0
   10.5355   15.3902   16.6330 C   0  0  0  0  0  0  0  0  0  0  0  0
   10.8023   14.3769   17.4160 N   0  0  0  0  0  0  0  0  0  0  0  0
   11.1709   14.6797   18.6852 C   0  0  0  0  0  0  0  0  0  0  0  0
   11.5267   13.8819   19.6902 N   0  0  0  0  0  0  0  0  0  0  0  0
   10.7616   12.6881   22.6946 N   0  0  0  0  0  0  0  0  0  0  0  0
    9.8495   12.0235   23.5325 C   0  0  0  0  0  0  0  0  0  0  0  0
    8.9964   12.7466   24.3392 C   0  0  0  0  0  0  0  0  0  0  0  0
    8.0405   12.0995   25.1631 C   0  0  0  0  0  0  0  0  0  0  0  0
    7.9347   10.7285   25.1517 C   0  0  0  0  0  0  0  0  0  0  0  0
    8.8006    9.9560   24.3329 C   0  0  0  0  0  0  0  0  0  0  0  0
    8.5911    8.6031   24.3524 N   0  0  0  0  0  0  0  0  0  0  0  0
    9.3830    7.8654   23.6457 C   0  0  0  0  0  0  0  0  0  0  0  0
    8.9796    6.1669   23.5164 Cl  0  0  0  0  0  0  0  0  0  0  0  0
   10.5257    8.3444   22.9435 C   0  0  0  0  0  0  0  0  0  0  0  0
   10.7285    9.7021   22.8771 C   0  0  0  0  0  0  0  0  0  0  0  0
    9.8174   10.5840   23.5443 C   0  0  0  0  0  0  0  0  0  0  0  0
  1  2  2  0
  2  3  1  0
  3  4  1  0
  4  5  2  0
  5  6  1  0
  6  7  1  0
  7  8  2  0
  8  9  1  0
  9 10  2  0
 10 11  1  0
 11 12  2  0
  2 13  1  0
 13 14  1  0
 14 15  2  0
 15 16  1  0
 16 17  2  0
 17 18  1  0
 18 19  2  0
 19 20  1  0
 20 21  1  0
 20 22  2  0
 22 23  1  0
 23 24  2  0
 12  4  1  0
 24 14  1  0
 11  6  1  0
 24 18  1  0
M  END
>  <ref_pdb>  (88) 
x0554_0A

>  <ref_mols>  (88) 
x0554_0A,x0566_0A

>  <original SMILES>  (88) 
O=C(Cc1nc2ncccn2n1)Nc1cccc2nc(Cl)ccc12

>  <IC50 (nM)>  (88) 
934.2218058054597

>  <CNNaffinity>  (88) 
6.02955

>  <rationale>  (88) 
-1

$$$$
PV_002507138300
     RDKit          3D

 27 30  0  0  0  0  0  0  0  0999 V2000
   13.4160   15.1220   22.4678 C   0  0  0  0  0  0  0  0  0  0  0  0
   12.5080   13.9808   22.0061 C   0  0  1  0  0  0  0  0  0  0  0  0
   11.2234   13.8200   22.8478 C   0  0  0  0  0  0  0  0  0  0  0  0
   10.7729   14.7163   23.5335 O   0  0  0  0  0  0  0  0  0  0  0  0
   10.6543   12.5802   22.7230 N   0  0  0  0  0  0  0  0  0  0  0  0
    9.7509   11.9568   23.5928 C   0  0  0  0  0  0  0  0  0  0  0  0
    8.8983   12.6833   24.3971 C   0  0  0  0  0  0  0  0  0  0  0  0
    7.9540   12.0227   25.2304 C   0  0  0  0  0  0  0  0  0  0  0  0
    7.8707   10.6479   25.2234 C   0  0  0  0  0  0  0  0  0  0  0  0
    8.7431    9.8824   24.4009 C   0  0  0  0  0  0  0  0  0  0  0  0
    8.5643    8.5249   24.4149 N   0  0  0  0  0  0  0  0  0  0  0  0
    9.3543    7.8080   23.6844 C   0  0  0  0  0  0  0  0  0  0  0  0
    8.9705    6.1082   23.5222 Cl  0  0  0  0  0  0  0  0  0  0  0  0
   10.4875    8.3062   22.9815 C   0  0  0  0  0  0  0  0  0  0  0  0
   10.6686    9.6642   22.9317 C   0  0  0  0  0  0  0  0  0  0  0  0
    9.7415   10.5219   23.6089 C   0  0  0  0  0  0  0  0  0  0  0  0
   12.0601   14.1884   20.6405 N   0  0  0  0  0  0  0  0  0  0  0  0
   12.6431   13.6569   19.5902 N   0  0  0  0  0  0  0  0  0  0  0  0
   12.0988   14.2185   18.5520 N   0  0  0  0  0  0  0  0  0  0  0  0
   11.1984   15.1180   19.0260 C   0  0  0  0  0  0  0  0  0  0  0  0
   10.3643   15.9915   18.1788 C   0  0  0  0  0  0  0  0  0  0  0  0
   10.1984   15.6589   16.8227 C   0  0  0  0  0  0  0  0  0  0  0  0
    9.3822   16.4494   16.0192 C   0  0  0  0  0  0  0  0  0  0  0  0
    8.7428   17.5780   16.5329 C   0  0  0  0  0  0  0  0  0  0  0  0
    8.9346   17.9336   17.8710 C   0  0  0  0  0  0  0  0  0  0  0  0
    9.7285   17.1381   18.7011 C   0  0  0  0  0  0  0  0  0  0  0  0
   11.1683   15.1102   20.3528 N   0  0  0  0  0  0  0  0  0  0  0  0
  2  1  1  1
  2  3  1  0
  3  4  2  0
  3  5  1  0
  5  6  1  0
  6  7  2  0
  7  8  1  0
  8  9  2  0
  9 10  1  0
 10 11  2  0
 11 12  1  0
 12 13  1  0
 12 14  2  0
 14 15  1  0
 15 16  2  0
  2 17  1  0
 17 18  1  0
 18 19  2  0
 19 20  1  0
 20 21  1  0
 21 22  2  0
 22 23  1  0
 23 24  2  0
 24 25  1  0
 25 26  2  0
 20 27  2  0
 16  6  1  0
 27 17  1  0
 16 10  1  0
 26 21  1  0
M  END
>  <ref_pdb>  (89) 
x0554_0A

>  <ref_mols>  (89) 
x0554_0A,x0566_0A

>  <original SMILES>  (89) 
C[C@@H](C(=O)Nc1cccc2nc(Cl)ccc12)n1nnc(-c2ccccc2)n1

>  <IC50 (nM)>  (89) 
935.0180612701322

>  <CNNaffinity>  (89) 
6.02918

>  <rationale>  (89) 
-1

$$$$
PV_002553609966
     RDKit          3D

 27 29  0  0  0  0  0  0  0  0999 V2000
   12.7890   12.6891   21.8282 C   0  0  0  0  0  0  0  0  0  0  0  0
   12.3715   13.9468   22.2869 C   0  0  1  0  0  0  0  0  0  0  0  0
   12.0289   14.8718   21.1331 N   0  0  0  0  0  0  0  0  0  0  0  0
   11.0658   14.5734   20.2183 C   0  0  0  0  0  0  0  0  0  0  0  0
   10.2145   13.7180   20.4202 O   0  0  0  0  0  0  0  0  0  0  0  0
   11.0354   15.4767   19.0126 C   0  0  0  0  0  0  0  0  0  0  0  0
   10.2040   16.7538   19.3030 C   0  0  0  0  0  0  0  0  0  0  0  0
    9.7062   17.4281   18.0642 C   0  0  0  0  0  0  0  0  0  0  0  0
    9.9611   18.9197   17.8346 C   0  0  0  0  0  0  0  0  0  0  0  0
    9.1694   19.4072   16.7194 C   0  0  0  0  0  0  0  0  0  0  0  0
    8.3147   18.7683   15.9274 C   0  0  0  0  0  0  0  0  0  0  0  0
    8.1986   17.3633   16.1799 C   0  0  0  0  0  0  0  0  0  0  0  0
    8.8877   16.7260   17.2052 C   0  0  0  0  0  0  0  0  0  0  0  0
   11.2625   13.7913   23.4915 C   0  0  0  0  0  0  0  0  0  0  0  0
   11.4542   14.2901   24.5789 O   0  0  0  0  0  0  0  0  0  0  0  0
   10.1871   13.0098   23.1701 N   0  0  0  0  0  0  0  0  0  0  0  0
    9.4156   12.2641   24.0840 C   0  0  0  0  0  0  0  0  0  0  0  0
    8.6516   12.8790   25.0140 C   0  0  0  0  0  0  0  0  0  0  0  0
    7.6376   12.1428   25.8193 C   0  0  0  0  0  0  0  0  0  0  0  0
    7.6965   10.6965   25.6796 C   0  0  0  0  0  0  0  0  0  0  0  0
    8.5369   10.0696   24.7599 C   0  0  0  0  0  0  0  0  0  0  0  0
    8.4506    8.6974   24.6842 N   0  0  0  0  0  0  0  0  0  0  0  0
    9.1572    8.1045   23.7813 C   0  0  0  0  0  0  0  0  0  0  0  0
    8.8822    6.3937   23.5380 Cl  0  0  0  0  0  0  0  0  0  0  0  0
   10.1026    8.7416   22.9305 C   0  0  0  0  0  0  0  0  0  0  0  0
   10.2370   10.1052   23.0155 C   0  0  0  0  0  0  0  0  0  0  0  0
    9.4202   10.8330   23.9349 C   0  0  0  0  0  0  0  0  0  0  0  0
  2  1  1  6
  2  3  1  0
  3  4  1  0
  4  5  2  0
  4  6  1  0
  6  7  1  0
  7  8  1  0
  8  9  2  0
  9 10  1  0
 10 11  2  0
 11 12  1  0
 12 13  2  0
  2 14  1  0
 14 15  2  0
 14 16  1  0
 16 17  1  0
 17 18  2  0
 18 19  1  0
 19 20  2  0
 20 21  1  0
 21 22  2  0
 22 23  1  0
 23 24  1  0
 23 25  2  0
 25 26  1  0
 26 27  2  0
 13  8  1  0
 27 17  1  0
 27 21  1  0
M  END
>  <ref_pdb>  (90) 
x0554_0A

>  <ref_mols>  (90) 
x0554_0A,x0566_0A

>  <original SMILES>  (90) 
C[C@@H](NC(=O)CCc1ccccc1)C(=O)Nc1cccc2nc(Cl)ccc12

>  <IC50 (nM)>  (90) 
935.5133729051314

>  <CNNaffinity>  (90) 
6.02895

>  <rationale>  (90) 
-1

$$$$
Z3207006508
     RDKit          3D

 22 24  0  0  0  0  0  0  0  0999 V2000
   10.5796   14.8586   23.1383 O   0  0  0  0  0  0  0  0  0  0  0  0
   11.2438   13.9266   22.7221 C   0  0  0  0  0  0  0  0  0  0  0  0
   12.5878   14.1473   22.0227 C   0  0  0  0  0  0  0  0  0  0  0  0
   12.5701   15.0586   20.7743 C   0  0  0  0  0  0  0  0  0  0  0  0
   11.7242   14.5043   19.6262 C   0  0  1  0  0  0  0  0  0  0  0  0
   10.1948   14.6345   19.8561 C   0  0  0  0  0  0  0  0  0  0  0  0
    9.6418   15.3475   18.6089 C   0  0  0  0  0  0  0  0  0  0  0  0
   10.8094   15.4383   17.6456 C   0  0  0  0  0  0  0  0  0  0  0  0
   10.7921   15.6912   16.4605 O   0  0  0  0  0  0  0  0  0  0  0  0
   11.9441   15.2269   18.3765 N   0  0  0  0  0  0  0  0  0  0  0  0
   10.8704   12.6101   22.8268 N   0  0  0  0  0  0  0  0  0  0  0  0
    9.8838   12.0014   23.6182 C   0  0  0  0  0  0  0  0  0  0  0  0
    9.0039   12.7403   24.3828 C   0  0  0  0  0  0  0  0  0  0  0  0
    8.0145   12.1009   25.1789 C   0  0  0  0  0  0  0  0  0  0  0  0
    7.9027   10.7316   25.1810 C   0  0  0  0  0  0  0  0  0  0  0  0
    8.7844    9.9434   24.3926 C   0  0  0  0  0  0  0  0  0  0  0  0
    8.5650    8.5913   24.4214 N   0  0  0  0  0  0  0  0  0  0  0  0
    9.3365    7.8434   23.7043 C   0  0  0  0  0  0  0  0  0  0  0  0
    8.9209    6.1484   23.5819 Cl  0  0  0  0  0  0  0  0  0  0  0  0
   10.4702    8.3057   22.9804 C   0  0  0  0  0  0  0  0  0  0  0  0
   10.6946    9.6589   22.9264 C   0  0  0  0  0  0  0  0  0  0  0  0
    9.8168   10.5574   23.6181 C   0  0  0  0  0  0  0  0  0  0  0  0
  1  2  2  0
  2  3  1  0
  3  4  1  0
  5  4  1  1
  5  6  1  0
  6  7  1  0
  7  8  1  0
  8  9  2  0
  8 10  1  0
  2 11  1  0
 11 12  1  0
 12 13  2  0
 13 14  1  0
 14 15  2  0
 15 16  1  0
 16 17  2  0
 17 18  1  0
 18 19  1  0
 18 20  2  0
 20 21  1  0
 21 22  2  0
 10  5  1  0
 22 12  1  0
 22 16  1  0
M  END
>  <ref_pdb>  (91) 
x0554_0A

>  <ref_mols>  (91) 
x0554_0A,x0566_0A

>  <original SMILES>  (91) 
O=C(CC[C@H]1CCC(=O)N1)Nc1cccc2nc(Cl)ccc12

>  <IC50 (nM)>  (91) 
937.2598213529309

>  <CNNaffinity>  (91) 
6.02814

>  <rationale>  (91) 
-1

$$$$
PV_002252288920
     RDKit          3D

 26 29  0  0  0  0  0  0  0  0999 V2000
   11.4379   14.2419   24.5676 O   0  0  0  0  0  0  0  0  0  0  0  0
   11.5446   13.8659   23.4126 C   0  0  0  0  0  0  0  0  0  0  0  0
   12.5235   14.5888   22.4748 C   0  0  0  0  0  0  0  0  0  0  0  0
   12.1314   14.7882   21.0768 N   0  0  0  0  0  0  0  0  0  0  0  0
   12.3089   13.7132   20.2501 N   0  0  0  0  0  0  0  0  0  0  0  0
   12.0272   13.7803   19.0207 N   0  0  0  0  0  0  0  0  0  0  0  0
   11.4782   14.9526   18.4673 C   0  0  0  0  0  0  0  0  0  0  0  0
   11.2495   15.0096   17.0739 C   0  0  0  0  0  0  0  0  0  0  0  0
   10.6723   16.1350   16.5112 C   0  0  0  0  0  0  0  0  0  0  0  0
   10.2824   17.2182   17.3329 C   0  0  0  0  0  0  0  0  0  0  0  0
   10.5127   17.1826   18.6985 C   0  0  0  0  0  0  0  0  0  0  0  0
   11.1465   16.0540   19.2664 C   0  0  0  0  0  0  0  0  0  0  0  0
   11.5076   16.0001   20.6821 C   0  0  0  0  0  0  0  0  0  0  0  0
   11.3148   16.8880   21.4955 O   0  0  0  0  0  0  0  0  0  0  0  0
   10.8646   12.8001   22.8937 N   0  0  0  0  0  0  0  0  0  0  0  0
    9.8719   12.1055   23.6199 C   0  0  0  0  0  0  0  0  0  0  0  0
    8.9440   12.8101   24.3571 C   0  0  0  0  0  0  0  0  0  0  0  0
    7.9033   12.1516   25.0623 C   0  0  0  0  0  0  0  0  0  0  0  0
    7.8333   10.7783   25.0394 C   0  0  0  0  0  0  0  0  0  0  0  0
    8.7770   10.0234   24.2927 C   0  0  0  0  0  0  0  0  0  0  0  0
    8.5969    8.6663   24.2810 N   0  0  0  0  0  0  0  0  0  0  0  0
    9.4248    7.9582   23.5843 C   0  0  0  0  0  0  0  0  0  0  0  0
    9.0561    6.2594   23.3883 Cl  0  0  0  0  0  0  0  0  0  0  0  0
   10.5759    8.4681   22.9197 C   0  0  0  0  0  0  0  0  0  0  0  0
   10.7613    9.8283   22.9044 C   0  0  0  0  0  0  0  0  0  0  0  0
    9.8291   10.6750   23.5772 C   0  0  0  0  0  0  0  0  0  0  0  0
  1  2  2  0
  2  3  1  0
  3  4  1  0
  4  5  1  0
  5  6  2  0
  6  7  1  0
  7  8  2  0
  8  9  1  0
  9 10  2  0
 10 11  1  0
 11 12  2  0
 12 13  1  0
 13 14  2  0
  2 15  1  0
 15 16  1  0
 16 17  2  0
 17 18  1  0
 18 19  2  0
 19 20  1  0
 20 21  2  0
 21 22  1  0
 22 23  1  0
 22 24  2  0
 24 25  1  0
 25 26  2  0
 13  4  1  0
 26 16  1  0
 12  7  1  0
 26 20  1  0
M  END
>  <ref_pdb>  (92) 
x0554_0A

>  <ref_mols>  (92) 
x0554_0A,x0566_0A

>  <original SMILES>  (92) 
O=C(Cn1nnc2ccccc2c1=O)Nc1cccc2nc(Cl)ccc12

>  <IC50 (nM)>  (92) 
938.2962918587863

>  <CNNaffinity>  (92) 
6.02766

>  <rationale>  (92) 
-1

$$$$
PV_002106354541
     RDKit          3D

 25 27  0  0  0  0  0  0  0  0999 V2000
   10.0559   15.1666   16.1850 C   0  0  0  0  0  0  0  0  0  0  0  0
   11.0896   14.9862   17.2908 C   0  0  0  0  0  0  0  0  0  0  0  0
   10.5379   14.2291   18.5190 C   0  0  2  0  0  0  0  0  0  0  0  0
    9.3350   14.9442   19.1810 C   0  0  0  0  0  0  0  0  0  0  0  0
   11.7100   13.8540   19.4512 C   0  0  0  0  0  0  0  0  0  0  0  0
   12.5229   13.0128   19.1236 O   0  0  0  0  0  0  0  0  0  0  0  0
   11.7984   14.5071   20.6769 N   0  0  0  0  0  0  0  0  0  0  0  0
   11.7625   15.9739   20.7237 C   0  0  0  0  0  0  0  0  0  0  0  0
   12.0700   16.3774   22.4440 S   0  0  0  0  0  0  0  0  0  0  0  0
   13.2701   15.0214   22.4693 C   0  0  0  0  0  0  0  0  0  0  0  0
   12.4845   13.8797   21.8365 C   0  0  1  0  0  0  0  0  0  0  0  0
   11.5601   13.2145   22.9213 C   0  0  0  0  0  0  0  0  0  0  0  0
   11.6731   13.4598   24.1069 O   0  0  0  0  0  0  0  0  0  0  0  0
   10.6465   12.3102   22.4506 N   0  0  0  0  0  0  0  0  0  0  0  0
    9.6867   11.6976   23.2869 C   0  0  0  0  0  0  0  0  0  0  0  0
    8.8042   12.4888   23.9896 C   0  0  0  0  0  0  0  0  0  0  0  0
    7.8255   11.9198   24.8476 C   0  0  0  0  0  0  0  0  0  0  0  0
    7.7578   10.5558   24.9827 C   0  0  0  0  0  0  0  0  0  0  0  0
    8.6627    9.7183   24.2771 C   0  0  0  0  0  0  0  0  0  0  0  0
    8.5076    8.3749   24.4602 N   0  0  0  0  0  0  0  0  0  0  0  0
    9.2687    7.5826   23.7830 C   0  0  0  0  0  0  0  0  0  0  0  0
    8.8429    5.8840   23.7857 Cl  0  0  0  0  0  0  0  0  0  0  0  0
   10.3923    8.0031   23.0163 C   0  0  0  0  0  0  0  0  0  0  0  0
   10.5779    9.3490   22.8261 C   0  0  0  0  0  0  0  0  0  0  0  0
    9.6601   10.2736   23.4195 C   0  0  0  0  0  0  0  0  0  0  0  0
  1  2  1  0
  2  3  1  0
  3  4  1  1
  3  5  1  0
  5  6  2  0
  5  7  1  0
  7  8  1  0
  8  9  1  0
  9 10  1  0
 10 11  1  0
 11 12  1  1
 12 13  2  0
 12 14  1  0
 14 15  1  0
 15 16  2  0
 16 17  1  0
 17 18  2  0
 18 19  1  0
 19 20  2  0
 20 21  1  0
 21 22  1  0
 21 23  2  0
 23 24  1  0
 24 25  2  0
 11  7  1  0
 25 15  1  0
 25 19  1  0
M  END
>  <ref_pdb>  (93) 
x0554_0A

>  <ref_mols>  (93) 
x0554_0A,x0566_0A

>  <original SMILES>  (93) 
CC[C@H](C)C(=O)N1CSC[C@H]1C(=O)Nc1cccc2nc(Cl)ccc12

>  <IC50 (nM)>  (93) 
939.6583990200359

>  <CNNaffinity>  (93) 
6.02703

>  <rationale>  (93) 
-1

$$$$
PV_002086364830
     RDKit          3D

 25 28  0  0  0  0  0  0  0  0999 V2000
   10.9516   14.7243   23.4568 O   0  0  0  0  0  0  0  0  0  0  0  0
   11.3107   13.8280   22.7143 C   0  0  0  0  0  0  0  0  0  0  0  0
   12.4646   14.0394   21.6979 C   0  0  0  0  0  0  0  0  0  0  0  0
   12.0748   14.3545   20.3266 N   0  0  0  0  0  0  0  0  0  0  0  0
   12.4511   13.6133   19.1957 C   0  0  0  0  0  0  0  0  0  0  0  0
   12.9984   12.5321   19.1420 O   0  0  0  0  0  0  0  0  0  0  0  0
   12.0355   14.3508   18.1150 N   0  0  0  0  0  0  0  0  0  0  0  0
   11.3266   15.4741   18.5134 C   0  0  0  0  0  0  0  0  0  0  0  0
   10.6128   16.4360   17.8125 C   0  0  0  0  0  0  0  0  0  0  0  0
   10.0164   17.4644   18.5543 C   0  0  0  0  0  0  0  0  0  0  0  0
   10.1274   17.5172   19.9589 C   0  0  0  0  0  0  0  0  0  0  0  0
   10.8114   16.5228   20.6670 C   0  0  0  0  0  0  0  0  0  0  0  0
   11.3935   15.4998   19.9226 C   0  0  0  0  0  0  0  0  0  0  0  0
   10.7739   12.5714   22.7094 N   0  0  0  0  0  0  0  0  0  0  0  0
    9.8501   11.9869   23.5921 C   0  0  0  0  0  0  0  0  0  0  0  0
    9.0046   12.7307   24.3858 C   0  0  0  0  0  0  0  0  0  0  0  0
    8.0224   12.0918   25.1969 C   0  0  0  0  0  0  0  0  0  0  0  0
    7.9033   10.7203   25.1907 C   0  0  0  0  0  0  0  0  0  0  0  0
    8.7736    9.9332   24.3885 C   0  0  0  0  0  0  0  0  0  0  0  0
    8.5653    8.5797   24.4089 N   0  0  0  0  0  0  0  0  0  0  0  0
    9.3475    7.8411   23.6914 C   0  0  0  0  0  0  0  0  0  0  0  0
    8.9424    6.1456   23.5483 Cl  0  0  0  0  0  0  0  0  0  0  0  0
   10.4892    8.3115   22.9847 C   0  0  0  0  0  0  0  0  0  0  0  0
   10.6988    9.6654   22.9346 C   0  0  0  0  0  0  0  0  0  0  0  0
    9.7957   10.5492   23.6078 C   0  0  0  0  0  0  0  0  0  0  0  0
  1  2  2  0
  2  3  1  0
  3  4  1  0
  4  5  1  0
  5  6  2  0
  5  7  1  0
  7  8  1  0
  8  9  2  0
  9 10  1  0
 10 11  2  0
 11 12  1  0
 12 13  2  0
  2 14  1  0
 14 15  1  0
 15 16  2  0
 16 17  1  0
 17 18  2  0
 18 19  1  0
 19 20  2  0
 20 21  1  0
 21 22  1  0
 21 23  2  0
 23 24  1  0
 24 25  2  0
 13  4  1  0
 25 15  1  0
 13  8  1  0
 25 19  1  0
M  END
>  <ref_pdb>  (94) 
x0554_0A

>  <ref_mols>  (94) 
x0554_0A,x0566_0A

>  <original SMILES>  (94) 
O=C(Cn1c(=O)[nH]c2ccccc21)Nc1cccc2nc(Cl)ccc12

>  <IC50 (nM)>  (94) 
944.1043528970134

>  <CNNaffinity>  (94) 
6.02498

>  <rationale>  (94) 
-1

$$$$
PV_002399384522
     RDKit          3D

 24 26  0  0  0  0  0  0  0  0999 V2000
    9.2220   15.6910   17.7452 C   0  0  0  0  0  0  0  0  0  0  0  0
   10.7226   15.9668   17.6317 C   0  0  0  0  0  0  0  0  0  0  0  0
   11.5103   15.2580   18.6401 N   0  0  0  0  0  0  0  0  0  0  0  0
   11.5582   15.4959   19.9765 C   0  0  0  0  0  0  0  0  0  0  0  0
   12.1904   14.4060   20.5438 C   0  0  0  0  0  0  0  0  0  0  0  0
   12.4277   14.1028   21.9949 C   0  0  0  0  0  0  0  0  0  0  0  0
   13.1882   15.0832   22.5376 F   0  0  0  0  0  0  0  0  0  0  0  0
   13.1697   12.9355   22.0700 F   0  0  0  0  0  0  0  0  0  0  0  0
   11.1285   13.8982   22.8968 C   0  0  0  0  0  0  0  0  0  0  0  0
   10.6756   14.7749   23.5972 O   0  0  0  0  0  0  0  0  0  0  0  0
   10.5796   12.6486   22.7617 N   0  0  0  0  0  0  0  0  0  0  0  0
    9.7176   11.9886   23.6508 C   0  0  0  0  0  0  0  0  0  0  0  0
    8.8622   12.6809   24.4775 C   0  0  0  0  0  0  0  0  0  0  0  0
    7.9277   11.9866   25.2932 C   0  0  0  0  0  0  0  0  0  0  0  0
    7.8687   10.6134   25.2573 C   0  0  0  0  0  0  0  0  0  0  0  0
    8.7532    9.8782   24.4233 C   0  0  0  0  0  0  0  0  0  0  0  0
    8.5796    8.5208   24.4125 N   0  0  0  0  0  0  0  0  0  0  0  0
    9.3741    7.8200   23.6727 C   0  0  0  0  0  0  0  0  0  0  0  0
    8.9907    6.1245   23.4811 Cl  0  0  0  0  0  0  0  0  0  0  0  0
   10.5037    8.3391   22.9815 C   0  0  0  0  0  0  0  0  0  0  0  0
   10.6767    9.7008   22.9574 C   0  0  0  0  0  0  0  0  0  0  0  0
    9.7421   10.5480   23.6413 C   0  0  0  0  0  0  0  0  0  0  0  0
   12.5096   13.5705   19.4538 C   0  0  0  0  0  0  0  0  0  0  0  0
   12.0907   14.1010   18.3216 N   0  0  0  0  0  0  0  0  0  0  0  0
  1  2  1  0
  2  3  1  0
  3  4  1  0
  4  5  2  0
  5  6  1  0
  6  7  1  0
  6  8  1  0
  6  9  1  0
  9 10  2  0
  9 11  1  0
 11 12  1  0
 12 13  2  0
 13 14  1  0
 14 15  2  0
 15 16  1  0
 16 17  2  0
 17 18  1  0
 18 19  1  0
 18 20  2  0
 20 21  1  0
 21 22  2  0
  5 23  1  0
 23 24  2  0
 24  3  1  0
 22 12  1  0
 22 16  1  0
M  END
>  <ref_pdb>  (95) 
x0554_0A

>  <ref_mols>  (95) 
x0554_0A,x0566_0A

>  <original SMILES>  (95) 
CCn1cc(C(F)(F)C(=O)Nc2cccc3nc(Cl)ccc23)cn1

>  <IC50 (nM)>  (95) 
946.128228057509

>  <CNNaffinity>  (95) 
6.02405

>  <rationale>  (95) 
-1

$$$$
PV_007153068148
     RDKit          3D

 25 28  0  0  0  0  0  0  0  0999 V2000
   11.3506   15.7859   16.6344 C   0  0  0  0  0  0  0  0  0  0  0  0
   10.0558   15.5992   17.4310 C   0  0  0  0  0  0  0  0  0  0  0  0
   10.1957   15.9714   18.8382 N   0  0  0  0  0  0  0  0  0  0  0  0
    9.8522   17.2278   19.1916 N   0  0  0  0  0  0  0  0  0  0  0  0
   10.4054   17.4251   20.3754 C   0  0  0  0  0  0  0  0  0  0  0  0
   11.1332   16.2996   20.7993 C   0  0  0  0  0  0  0  0  0  0  0  0
   10.9227   15.3595   19.8168 C   0  0  0  0  0  0  0  0  0  0  0  0
   11.3745   13.9278   19.9131 C   0  0  0  0  0  0  0  0  0  0  0  0
   11.8331   13.6005   21.3725 C   0  0  2  0  0  0  0  0  0  0  0  0
   10.6107   13.3859   22.2887 C   0  0  0  0  0  0  0  0  0  0  0  0
    9.9039   14.3035   22.6615 O   0  0  0  0  0  0  0  0  0  0  0  0
   10.3902   12.0740   22.6330 N   0  0  0  0  0  0  0  0  0  0  0  0
    9.5137   11.5320   23.5822 C   0  0  0  0  0  0  0  0  0  0  0  0
    8.6536   12.3147   24.3275 C   0  0  0  0  0  0  0  0  0  0  0  0
    7.8067   11.7395   25.3139 C   0  0  0  0  0  0  0  0  0  0  0  0
    7.8025   10.3788   25.5095 C   0  0  0  0  0  0  0  0  0  0  0  0
    8.6246    9.5431   24.7096 C   0  0  0  0  0  0  0  0  0  0  0  0
    8.4563    8.1944   24.8832 N   0  0  0  0  0  0  0  0  0  0  0  0
    9.1157    7.4112   24.0966 C   0  0  0  0  0  0  0  0  0  0  0  0
    8.6895    5.7155   24.0872 Cl  0  0  0  0  0  0  0  0  0  0  0  0
   10.1748    7.8254   23.2421 C   0  0  0  0  0  0  0  0  0  0  0  0
   10.3853    9.1683   23.0833 C   0  0  0  0  0  0  0  0  0  0  0  0
    9.5377   10.1022   23.7639 C   0  0  0  0  0  0  0  0  0  0  0  0
   12.7334   14.7127   21.9390 C   0  0  0  0  0  0  0  0  0  0  0  0
   12.0558   16.0882   21.9585 C   0  0  0  0  0  0  0  0  0  0  0  0
  1  2  1  0
  2  3  1  0
  3  4  1  0
  4  5  2  0
  5  6  1  0
  6  7  2  0
  7  8  1  0
  8  9  1  0
  9 10  1  1
 10 11  2  0
 10 12  1  0
 12 13  1  0
 13 14  2  0
 14 15  1  0
 15 16  2  0
 16 17  1  0
 17 18  2  0
 18 19  1  0
 19 20  1  0
 19 21  2  0
 21 22  1  0
 22 23  2  0
  9 24  1  0
 24 25  1  0
  7  3  1  0
 23 13  1  0
 25  6  1  0
 23 17  1  0
M  END
>  <ref_pdb>  (96) 
x0554_0A

>  <ref_mols>  (96) 
x0554_0A,x0566_0A

>  <original SMILES>  (96) 
CCn1ncc2c1C[C@H](C(=O)Nc1cccc3nc(Cl)ccc13)CC2

>  <IC50 (nM)>  (96) 
947.0000457843731

>  <CNNaffinity>  (96) 
6.02365

>  <rationale>  (96) 
-1

$$$$
PV_002163638219
     RDKit          3D

 26 29  0  0  0  0  0  0  0  0999 V2000
   10.7817   14.7594   23.5743 O   0  0  0  0  0  0  0  0  0  0  0  0
   11.2223   13.8831   22.8603 C   0  0  0  0  0  0  0  0  0  0  0  0
   12.4777   14.1036   22.0110 C   0  0  0  0  0  0  0  0  0  0  0  0
   12.1629   14.2954   20.6045 N   0  0  0  0  0  0  0  0  0  0  0  0
   12.4963   13.6156   19.4893 C   0  0  0  0  0  0  0  0  0  0  0  0
   12.0765   14.2504   18.4212 N   0  0  0  0  0  0  0  0  0  0  0  0
   11.4597   15.3504   18.9357 C   0  0  0  0  0  0  0  0  0  0  0  0
   10.7711   16.3607   18.0982 C   0  0  0  0  0  0  0  0  0  0  0  0
   10.4602   17.6414   18.6064 C   0  0  0  0  0  0  0  0  0  0  0  0
    9.7643   18.5604   17.8169 C   0  0  0  0  0  0  0  0  0  0  0  0
    9.3336   18.2069   16.5358 C   0  0  0  0  0  0  0  0  0  0  0  0
    9.6495   16.9460   16.0255 C   0  0  0  0  0  0  0  0  0  0  0  0
   10.3844   16.0387   16.7816 C   0  0  0  0  0  0  0  0  0  0  0  0
   11.4940   15.4092   20.2600 N   0  0  0  0  0  0  0  0  0  0  0  0
   10.6762   12.6344   22.7388 N   0  0  0  0  0  0  0  0  0  0  0  0
    9.7780   11.9925   23.6085 C   0  0  0  0  0  0  0  0  0  0  0  0
    8.9238   12.7037   24.4220 C   0  0  0  0  0  0  0  0  0  0  0  0
    7.9744   12.0354   25.2406 C   0  0  0  0  0  0  0  0  0  0  0  0
    7.8933   10.6628   25.2216 C   0  0  0  0  0  0  0  0  0  0  0  0
    8.7690    9.9079   24.3978 C   0  0  0  0  0  0  0  0  0  0  0  0
    8.5821    8.5521   24.4001 N   0  0  0  0  0  0  0  0  0  0  0  0
    9.3722    7.8348   23.6700 C   0  0  0  0  0  0  0  0  0  0  0  0
    8.9826    6.1387   23.4999 Cl  0  0  0  0  0  0  0  0  0  0  0  0
   10.5069    8.3321   22.9680 C   0  0  0  0  0  0  0  0  0  0  0  0
   10.6913    9.6909   22.9319 C   0  0  0  0  0  0  0  0  0  0  0  0
    9.7715   10.5532   23.6131 C   0  0  0  0  0  0  0  0  0  0  0  0
  1  2  2  0
  2  3  1  0
  3  4  1  0
  4  5  1  0
  5  6  2  0
  6  7  1  0
  7  8  1  0
  8  9  2  0
  9 10  1  0
 10 11  2  0
 11 12  1  0
 12 13  2  0
  7 14  2  0
  2 15  1  0
 15 16  1  0
 16 17  2  0
 17 18  1  0
 18 19  2  0
 19 20  1  0
 20 21  2  0
 21 22  1  0
 22 23  1  0
 22 24  2  0
 24 25  1  0
 25 26  2  0
 14  4  1  0
 26 16  1  0
 13  8  1  0
 26 20  1  0
M  END
>  <ref_pdb>  (97) 
x0554_0A

>  <ref_mols>  (97) 
x0554_0A,x0566_0A

>  <original SMILES>  (97) 
O=C(Cn1cnc(-c2ccccc2)n1)Nc1cccc2nc(Cl)ccc12

>  <IC50 (nM)>  (97) 
947.8508415314822

>  <CNNaffinity>  (97) 
6.02326

>  <rationale>  (97) 
-1

$$$$
Z4124596916
     RDKit          3D

 24 26  0  0  0  0  0  0  0  0999 V2000
   10.7578   14.7697   23.4939 O   0  0  0  0  0  0  0  0  0  0  0  0
   11.2632   13.8569   22.8704 C   0  0  0  0  0  0  0  0  0  0  0  0
   12.4887   14.0416   21.9842 C   0  0  0  0  0  0  0  0  0  0  0  0
   12.1314   14.2917   20.5060 C   0  0  0  0  0  0  0  0  0  0  0  0
   11.1852   15.4833   20.3226 C   0  0  0  0  0  0  0  0  0  0  0  0
   10.6564   15.7174   18.9002 C   0  0  1  0  0  0  0  0  0  0  0  0
   11.7452   15.9172   17.8353 C   0  0  0  0  0  0  0  0  0  0  0  0
   11.1384   16.0104   16.4297 C   0  0  0  0  0  0  0  0  0  0  0  0
   10.3837   14.7166   16.1162 C   0  0  0  0  0  0  0  0  0  0  0  0
    9.4793   14.2301   17.2252 C   0  0  0  0  0  0  0  0  0  0  0  0
    8.5278   13.5012   17.0139 O   0  0  0  0  0  0  0  0  0  0  0  0
    9.7858   14.6173   18.4948 N   0  0  0  0  0  0  0  0  0  0  0  0
   10.7706   12.5818   22.8497 N   0  0  0  0  0  0  0  0  0  0  0  0
    9.8166   11.9747   23.6705 C   0  0  0  0  0  0  0  0  0  0  0  0
    8.9445   12.7032   24.4491 C   0  0  0  0  0  0  0  0  0  0  0  0
    7.9606   12.0495   25.2403 C   0  0  0  0  0  0  0  0  0  0  0  0
    7.8607   10.6786   25.2263 C   0  0  0  0  0  0  0  0  0  0  0  0
    8.7458    9.9082   24.4274 C   0  0  0  0  0  0  0  0  0  0  0  0
    8.5488    8.5540   24.4450 N   0  0  0  0  0  0  0  0  0  0  0  0
    9.3284    7.8232   23.7172 C   0  0  0  0  0  0  0  0  0  0  0  0
    8.9361    6.1261   23.5576 Cl  0  0  0  0  0  0  0  0  0  0  0  0
   10.4564    8.3047   22.9978 C   0  0  0  0  0  0  0  0  0  0  0  0
   10.6613    9.6589   22.9618 C   0  0  0  0  0  0  0  0  0  0  0  0
    9.7672   10.5362   23.6563 C   0  0  0  0  0  0  0  0  0  0  0  0
  1  2  2  0
  2  3  1  0
  3  4  1  0
  4  5  1  0
  6  5  1  1
  6  7  1  0
  7  8  1  0
  8  9  1  0
  9 10  1  0
 10 11  2  0
 10 12  1  0
  2 13  1  0
 13 14  1  0
 14 15  2  0
 15 16  1  0
 16 17  2  0
 17 18  1  0
 18 19  2  0
 19 20  1  0
 20 21  1  0
 20 22  2  0
 22 23  1  0
 23 24  2  0
 12  6  1  0
 24 14  1  0
 24 18  1  0
M  END
>  <ref_pdb>  (98) 
x0554_0A

>  <ref_mols>  (98) 
x0554_0A,x0566_0A

>  <original SMILES>  (98) 
O=C(CCC[C@H]1CCCC(=O)N1)Nc1cccc2nc(Cl)ccc12

>  <IC50 (nM)>  (98) 
948.7024016432865

>  <CNNaffinity>  (98) 
6.02287

>  <rationale>  (98) 
-1

$$$$
Z4410143795
     RDKit          3D

 24 27  0  0  0  0  0  0  0  0999 V2000
   12.4295   14.5508   19.8498 C   0  0  0  0  0  0  0  0  0  0  0  0
   11.2636   14.8480   20.5154 C   0  0  0  0  0  0  0  0  0  0  0  0
    9.9517   14.4139   19.8197 C   0  0  0  0  0  0  0  0  0  0  0  0
   11.2081   16.0976   21.4314 C   0  0  0  0  0  0  0  0  0  0  0  0
   11.1657   14.7607   22.1016 C   0  0  1  0  0  0  0  0  0  0  0  0
    9.8619   14.2899   22.7237 C   0  0  0  0  0  0  0  0  0  0  0  0
    8.9194   15.0226   22.9638 O   0  0  0  0  0  0  0  0  0  0  0  0
    9.8470   12.9305   22.8977 N   0  0  0  0  0  0  0  0  0  0  0  0
    9.0997   12.1486   23.7849 C   0  0  0  0  0  0  0  0  0  0  0  0
    8.1881   12.6953   24.6620 C   0  0  0  0  0  0  0  0  0  0  0  0
    7.4182   11.8607   25.5206 C   0  0  0  0  0  0  0  0  0  0  0  0
    7.5606   10.4926   25.4658 C   0  0  0  0  0  0  0  0  0  0  0  0
    8.4982    9.9067   24.5723 C   0  0  0  0  0  0  0  0  0  0  0  0
    8.5226    8.5369   24.5219 N   0  0  0  0  0  0  0  0  0  0  0  0
    9.3422    7.9814   23.6885 C   0  0  0  0  0  0  0  0  0  0  0  0
    9.1507    6.2693   23.3917 Cl  0  0  0  0  0  0  0  0  0  0  0  0
   10.3429    8.6738   22.9509 C   0  0  0  0  0  0  0  0  0  0  0  0
   10.3360   10.0445   22.9886 C   0  0  0  0  0  0  0  0  0  0  0  0
    9.3368   10.7283   23.7592 C   0  0  0  0  0  0  0  0  0  0  0  0
   12.2744   14.2192   22.9281 C   0  0  0  0  0  0  0  0  0  0  0  0
   12.5631   14.6949   24.1292 N   0  0  0  0  0  0  0  0  0  0  0  0
   13.5096   13.8604   24.5157 N   0  0  0  0  0  0  0  0  0  0  0  0
   13.7841   12.9042   23.6696 N   0  0  0  0  0  0  0  0  0  0  0  0
   12.9721   13.0825   22.6662 N   0  0  0  0  0  0  0  0  0  0  0  0
  1  2  1  0
  2  3  1  0
  2  4  1  0
  4  5  1  0
  5  6  1  6
  6  7  2  0
  6  8  1  0
  8  9  1  0
  9 10  2  0
 10 11  1  0
 11 12  2  0
 12 13  1  0
 13 14  2  0
 14 15  1  0
 15 16  1  0
 15 17  2  0
 17 18  1  0
 18 19  2  0
  5 20  1  0
 20 21  2  0
 21 22  1  0
 22 23  1  0
 23 24  2  0
  5  2  1  0
 19  9  1  0
 24 20  1  0
 19 13  1  0
M  END
>  <ref_pdb>  (99) 
x0554_0A

>  <ref_mols>  (99) 
x0554_0A,x0566_0A

>  <original SMILES>  (99) 
CC1(C)C[C@]1(C(=O)Nc1cccc2nc(Cl)ccc12)c1nn[nH]n1

>  <IC50 (nM)>  (99) 
950.5391304714176

>  <CNNaffinity>  (99) 
6.02203

>  <rationale>  (99) 
-1

$$$$
PV_002308038181
     RDKit          3D

 26 29  0  0  0  0  0  0  0  0999 V2000
   10.7060   14.8257   23.4299 O   0  0  0  0  0  0  0  0  0  0  0  0
   11.2135   13.9214   22.8005 C   0  0  0  0  0  0  0  0  0  0  0  0
   12.4722   14.1303   21.9728 C   0  0  0  0  0  0  0  0  0  0  0  0
   12.1552   14.4184   20.5446 C   0  0  0  0  0  0  0  0  0  0  0  0
   11.4928   15.5185   20.2150 N   0  0  0  0  0  0  0  0  0  0  0  0
   11.3980   15.4675   18.8903 N   0  0  0  0  0  0  0  0  0  0  0  0
   10.6777   16.4515   18.1341 C   0  0  0  0  0  0  0  0  0  0  0  0
   10.2878   16.1842   16.8109 C   0  0  0  0  0  0  0  0  0  0  0  0
    9.5687   17.1459   16.1020 C   0  0  0  0  0  0  0  0  0  0  0  0
    9.2099   18.3581   16.7018 C   0  0  0  0  0  0  0  0  0  0  0  0
    9.5812   18.6154   18.0244 C   0  0  0  0  0  0  0  0  0  0  0  0
   10.3321   17.6751   18.7347 C   0  0  0  0  0  0  0  0  0  0  0  0
   11.9552   14.4025   18.3327 N   0  0  0  0  0  0  0  0  0  0  0  0
   12.4521   13.7255   19.3579 C   0  0  0  0  0  0  0  0  0  0  0  0
   10.7393   12.6390   22.7592 N   0  0  0  0  0  0  0  0  0  0  0  0
    9.8147   12.0085   23.6065 C   0  0  0  0  0  0  0  0  0  0  0  0
    8.9542   12.7287   24.4063 C   0  0  0  0  0  0  0  0  0  0  0  0
    7.9898   12.0705   25.2182 C   0  0  0  0  0  0  0  0  0  0  0  0
    7.8924   10.6978   25.2008 C   0  0  0  0  0  0  0  0  0  0  0  0
    8.7702    9.9308   24.3875 C   0  0  0  0  0  0  0  0  0  0  0  0
    8.5756    8.5748   24.3952 N   0  0  0  0  0  0  0  0  0  0  0  0
    9.3645    7.8512   23.6709 C   0  0  0  0  0  0  0  0  0  0  0  0
    8.9769    6.1527   23.5138 Cl  0  0  0  0  0  0  0  0  0  0  0  0
   10.4986    8.3423   22.9654 C   0  0  0  0  0  0  0  0  0  0  0  0
   10.6944    9.6994   22.9266 C   0  0  0  0  0  0  0  0  0  0  0  0
    9.7832   10.5686   23.6082 C   0  0  0  0  0  0  0  0  0  0  0  0
  1  2  2  0
  2  3  1  0
  3  4  1  0
  4  5  2  0
  5  6  1  0
  6  7  1  0
  7  8  2  0
  8  9  1  0
  9 10  2  0
 10 11  1  0
 11 12  2  0
  6 13  1  0
 13 14  2  0
  2 15  1  0
 15 16  1  0
 16 17  2  0
 17 18  1  0
 18 19  2  0
 19 20  1  0
 20 21  2  0
 21 22  1  0
 22 23  1  0
 22 24  2  0
 24 25  1  0
 25 26  2  0
 14  4  1  0
 26 16  1  0
 12  7  1  0
 26 20  1  0
M  END
>  <ref_pdb>  (100) 
x0554_0A

>  <ref_mols>  (100) 
x0554_0A,x0566_0A

>  <original SMILES>  (100) 
O=C(Cc1cnn(-c2ccccc2)n1)Nc1cccc2nc(Cl)ccc12

>  <IC50 (nM)>  (100) 
950.9988680326172

>  <CNNaffinity>  (100) 
6.02182

>  <rationale>  (100) 
-1

$$$$
PV_002582015750
     RDKit          3D

 23 25  0  0  0  0  0  0  0  0999 V2000
   10.5978   15.6487   16.3413 C   0  0  0  0  0  0  0  0  0  0  0  0
   10.8475   16.2450   17.7128 C   0  0  0  0  0  0  0  0  0  0  0  0
   10.6100   17.4155   17.9445 O   0  0  0  0  0  0  0  0  0  0  0  0
   11.4079   15.3651   18.7967 C   0  0  0  0  0  0  0  0  0  0  0  0
   11.6044   15.6273   20.1401 C   0  0  0  0  0  0  0  0  0  0  0  0
   12.1245   14.4842   20.6355 N   0  0  0  0  0  0  0  0  0  0  0  0
   12.4671   14.1523   22.0066 C   0  0  0  0  0  0  0  0  0  0  0  0
   11.2232   13.8956   22.8557 C   0  0  0  0  0  0  0  0  0  0  0  0
   10.7839   14.7591   23.5878 O   0  0  0  0  0  0  0  0  0  0  0  0
   10.6836   12.6458   22.6998 N   0  0  0  0  0  0  0  0  0  0  0  0
    9.7918   11.9874   23.5691 C   0  0  0  0  0  0  0  0  0  0  0  0
    8.9454   12.6986   24.3965 C   0  0  0  0  0  0  0  0  0  0  0  0
    7.9974   12.0320   25.2188 C   0  0  0  0  0  0  0  0  0  0  0  0
    7.9096   10.6611   25.2027 C   0  0  0  0  0  0  0  0  0  0  0  0
    8.7774    9.9022   24.3749 C   0  0  0  0  0  0  0  0  0  0  0  0
    8.5860    8.5472   24.3893 N   0  0  0  0  0  0  0  0  0  0  0  0
    9.3765    7.8223   23.6692 C   0  0  0  0  0  0  0  0  0  0  0  0
    8.9654    6.1295   23.5047 Cl  0  0  0  0  0  0  0  0  0  0  0  0
   10.5198    8.3148   22.9799 C   0  0  0  0  0  0  0  0  0  0  0  0
   10.7058    9.6747   22.9222 C   0  0  0  0  0  0  0  0  0  0  0  0
    9.7791   10.5461   23.5823 C   0  0  0  0  0  0  0  0  0  0  0  0
   12.2462   13.5682   19.6774 N   0  0  0  0  0  0  0  0  0  0  0  0
   11.8296   14.0851   18.5722 N   0  0  0  0  0  0  0  0  0  0  0  0
  1  2  1  0
  2  3  2  0
  2  4  1  0
  4  5  2  0
  5  6  1  0
  6  7  1  0
  7  8  1  0
  8  9  2  0
  8 10  1  0
 10 11  1  0
 11 12  2  0
 12 13  1  0
 13 14  2  0
 14 15  1  0
 15 16  2  0
 16 17  1  0
 17 18  1  0
 17 19  2  0
 19 20  1  0
 20 21  2  0
  6 22  1  0
 22 23  2  0
 23  4  1  0
 21 11  1  0
 21 15  1  0
M  END
>  <ref_pdb>  (101) 
x0554_0A

>  <ref_mols>  (101) 
x0554_0A,x0566_0A

>  <original SMILES>  (101) 
CC(=O)c1cn(CC(=O)Nc2cccc3nc(Cl)ccc23)nn1

>  <IC50 (nM)>  (101) 
952.1162994810209

>  <CNNaffinity>  (101) 
6.02131

>  <rationale>  (101) 
-1

$$$$
PV_002330310566
     RDKit          3D

 24 26  0  0  0  0  0  0  0  0999 V2000
   10.9515   14.2540   15.8185 N   0  0  0  0  0  0  0  0  0  0  0  0
   11.0184   15.3618   16.6113 C   0  0  0  0  0  0  0  0  0  0  0  0
   10.6427   16.4286   16.1570 O   0  0  0  0  0  0  0  0  0  0  0  0
   11.5287   15.1756   18.0686 C   0  0  0  0  0  0  0  0  0  0  0  0
   11.2958   16.1460   19.0605 C   0  0  0  0  0  0  0  0  0  0  0  0
   11.6339   15.8462   20.3815 C   0  0  0  0  0  0  0  0  0  0  0  0
   12.2122   14.6036   20.6875 C   0  0  0  0  0  0  0  0  0  0  0  0
   12.4785   14.1794   22.1186 C   0  0  0  0  0  0  0  0  0  0  0  0
   11.2060   13.9300   22.9432 C   0  0  0  0  0  0  0  0  0  0  0  0
   10.7149   14.7965   23.6391 O   0  0  0  0  0  0  0  0  0  0  0  0
   10.6890   12.6666   22.8035 N   0  0  0  0  0  0  0  0  0  0  0  0
    9.7789   11.9985   23.6371 C   0  0  0  0  0  0  0  0  0  0  0  0
    8.9104   12.6959   24.4518 C   0  0  0  0  0  0  0  0  0  0  0  0
    7.9578   12.0152   25.2568 C   0  0  0  0  0  0  0  0  0  0  0  0
    7.8869   10.6437   25.2289 C   0  0  0  0  0  0  0  0  0  0  0  0
    8.7696    9.8998   24.4013 C   0  0  0  0  0  0  0  0  0  0  0  0
    8.5830    8.5435   24.3991 N   0  0  0  0  0  0  0  0  0  0  0  0
    9.3736    7.8306   23.6685 C   0  0  0  0  0  0  0  0  0  0  0  0
    8.9828    6.1351   23.4931 Cl  0  0  0  0  0  0  0  0  0  0  0  0
   10.5070    8.3332   22.9704 C   0  0  0  0  0  0  0  0  0  0  0  0
   10.6889    9.6953   22.9333 C   0  0  0  0  0  0  0  0  0  0  0  0
    9.7703   10.5561   23.6205 C   0  0  0  0  0  0  0  0  0  0  0  0
   12.4866   13.7455   19.6142 C   0  0  0  0  0  0  0  0  0  0  0  0
   12.1599   14.0220   18.3595 N   0  0  0  0  0  0  0  0  0  0  0  0
  1  2  1  0
  2  3  2  0
  2  4  1  0
  4  5  2  0
  5  6  1  0
  6  7  2  0
  7  8  1  0
  8  9  1  0
  9 10  2  0
  9 11  1  0
 11 12  1  0
 12 13  2  0
 13 14  1  0
 14 15  2  0
 15 16  1  0
 16 17  2  0
 17 18  1  0
 18 19  1  0
 18 20  2  0
 20 21  1  0
 21 22  2  0
  7 23  1  0
 23 24  2  0
 24  4  1  0
 22 12  1  0
 22 16  1  0
M  END
>  <ref_pdb>  (102) 
x0554_0A

>  <ref_mols>  (102) 
x0554_0A,x0566_0A

>  <original SMILES>  (102) 
NC(=O)c1ccc(CC(=O)Nc2cccc3nc(Cl)ccc23)cn1

>  <IC50 (nM)>  (102) 
959.1797467879703

>  <CNNaffinity>  (102) 
6.0181

>  <rationale>  (102) 
-1

$$$$
PV_002321358142
     RDKit          3D

 25 27  0  0  0  0  0  0  0  0999 V2000
   10.9392   15.9377   17.2235 C   0  0  0  0  0  0  0  0  0  0  0  0
   10.3662   14.7510   18.0375 C   0  0  0  0  0  0  0  0  0  0  0  0
    9.9972   13.6391   17.0126 C   0  0  0  0  0  0  0  0  0  0  0  0
    9.0721   15.1603   18.7891 C   0  0  0  0  0  0  0  0  0  0  0  0
   11.4710   14.2631   19.0535 C   0  0  0  0  0  0  0  0  0  0  0  0
   12.3482   13.4821   18.7406 O   0  0  0  0  0  0  0  0  0  0  0  0
   11.4435   14.7529   20.3499 N   0  0  0  0  0  0  0  0  0  0  0  0
   11.1791   16.1036   20.8257 C   0  0  0  0  0  0  0  0  0  0  0  0
   12.2740   16.2569   21.8789 C   0  0  0  0  0  0  0  0  0  0  0  0
   12.4214   14.8522   22.4984 C   0  0  0  0  0  0  0  0  0  0  0  0
   11.6617   13.9012   21.5254 C   0  0  1  0  0  0  0  0  0  0  0  0
   10.3358   13.4036   22.2023 C   0  0  0  0  0  0  0  0  0  0  0  0
    9.2811   14.0175   22.1485 O   0  0  0  0  0  0  0  0  0  0  0  0
   10.4574   12.2473   22.9317 N   0  0  0  0  0  0  0  0  0  0  0  0
    9.4725   11.6663   23.7533 C   0  0  0  0  0  0  0  0  0  0  0  0
    8.5578   12.4389   24.4377 C   0  0  0  0  0  0  0  0  0  0  0  0
    7.6587   11.8530   25.3680 C   0  0  0  0  0  0  0  0  0  0  0  0
    7.6679   10.4920   25.5672 C   0  0  0  0  0  0  0  0  0  0  0  0
    8.5474    9.6668   24.8186 C   0  0  0  0  0  0  0  0  0  0  0  0
    8.4089    8.3189   25.0159 N   0  0  0  0  0  0  0  0  0  0  0  0
    9.0651    7.5384   24.2217 C   0  0  0  0  0  0  0  0  0  0  0  0
    8.6579    5.8399   24.2330 Cl  0  0  0  0  0  0  0  0  0  0  0  0
   10.0596    7.9611   23.2963 C   0  0  0  0  0  0  0  0  0  0  0  0
   10.2626    9.3067   23.1366 C   0  0  0  0  0  0  0  0  0  0  0  0
    9.4701   10.2343   23.8867 C   0  0  0  0  0  0  0  0  0  0  0  0
  1  2  1  0
  2  3  1  0
  2  4  1  0
  2  5  1  0
  5  6  2  0
  5  7  1  0
  7  8  1  0
  8  9  1  0
  9 10  1  0
 10 11  1  0
 11 12  1  1
 12 13  2  0
 12 14  1  0
 14 15  1  0
 15 16  2  0
 16 17  1  0
 17 18  2  0
 18 19  1  0
 19 20  2  0
 20 21  1  0
 21 22  1  0
 21 23  2  0
 23 24  1  0
 24 25  2  0
 11  7  1  0
 25 15  1  0
 25 19  1  0
M  END
>  <ref_pdb>  (103) 
x0554_0A

>  <ref_mols>  (103) 
x0554_0A,x0566_0A

>  <original SMILES>  (103) 
CC(C)(C)C(=O)N1CCC[C@H]1C(=O)Nc1cccc2nc(Cl)ccc12

>  <IC50 (nM)>  (103) 
959.9751698928366

>  <CNNaffinity>  (103) 
6.01774

>  <rationale>  (103) 
-1

$$$$
PV_002211123196
     RDKit          3D

 25 28  0  0  0  0  0  0  0  0999 V2000
    9.6632   18.8976   17.8859 C   0  0  0  0  0  0  0  0  0  0  0  0
   10.2196   17.7096   18.6419 C   0  0  0  0  0  0  0  0  0  0  0  0
   10.2528   17.6977   20.0673 C   0  0  0  0  0  0  0  0  0  0  0  0
   10.7728   16.7420   20.8337 N   0  0  0  0  0  0  0  0  0  0  0  0
   11.3103   15.7227   20.1464 C   0  0  0  0  0  0  0  0  0  0  0  0
   11.3478   15.5979   18.7451 C   0  0  0  0  0  0  0  0  0  0  0  0
   10.7553   16.6178   17.9662 C   0  0  0  0  0  0  0  0  0  0  0  0
   12.0862   14.3995   18.5407 C   0  0  0  0  0  0  0  0  0  0  0  0
   12.4305   13.8355   19.6722 N   0  0  0  0  0  0  0  0  0  0  0  0
   11.9445   14.6276   20.6602 N   0  0  0  0  0  0  0  0  0  0  0  0
   12.3519   14.3777   22.0318 C   0  0  0  0  0  0  0  0  0  0  0  0
   11.2990   13.8858   23.0433 C   0  0  0  0  0  0  0  0  0  0  0  0
   11.0355   14.5473   24.0288 O   0  0  0  0  0  0  0  0  0  0  0  0
   10.7493   12.6533   22.7965 N   0  0  0  0  0  0  0  0  0  0  0  0
    9.8246   11.9812   23.6251 C   0  0  0  0  0  0  0  0  0  0  0  0
    8.9385   12.6919   24.4091 C   0  0  0  0  0  0  0  0  0  0  0  0
    7.9643   12.0326   25.2018 C   0  0  0  0  0  0  0  0  0  0  0  0
    7.8810   10.6624   25.1897 C   0  0  0  0  0  0  0  0  0  0  0  0
    8.7735    9.9036   24.3873 C   0  0  0  0  0  0  0  0  0  0  0  0
    8.5820    8.5494   24.3987 N   0  0  0  0  0  0  0  0  0  0  0  0
    9.3695    7.8201   23.6789 C   0  0  0  0  0  0  0  0  0  0  0  0
    8.9702    6.1225   23.5231 Cl  0  0  0  0  0  0  0  0  0  0  0  0
   10.5036    8.3095   22.9745 C   0  0  0  0  0  0  0  0  0  0  0  0
   10.7007    9.6687   22.9381 C   0  0  0  0  0  0  0  0  0  0  0  0
    9.7935   10.5424   23.6172 C   0  0  0  0  0  0  0  0  0  0  0  0
  1  2  1  0
  2  3  2  0
  3  4  1  0
  4  5  2  0
  5  6  1  0
  6  7  2  0
  6  8  1  0
  8  9  2  0
  9 10  1  0
 10 11  1  0
 11 12  1  0
 12 13  2  0
 12 14  1  0
 14 15  1  0
 15 16  2  0
 16 17  1  0
 17 18  2  0
 18 19  1  0
 19 20  2  0
 20 21  1  0
 21 22  1  0
 21 23  2  0
 23 24  1  0
 24 25  2  0
  7  2  1  0
 25 15  1  0
 10  5  1  0
 25 19  1  0
M  END
>  <ref_pdb>  (104) 
x0554_0A

>  <ref_mols>  (104) 
x0554_0A,x0566_0A

>  <original SMILES>  (104) 
Cc1cnc2c(cnn2CC(=O)Nc2cccc3nc(Cl)ccc23)c1

>  <IC50 (nM)>  (104) 
961.3466117968561

>  <CNNaffinity>  (104) 
6.01712

>  <rationale>  (104) 
-1

$$$$
Z4378288922
     RDKit          3D

 23 25  0  0  0  0  0  0  0  0999 V2000
   13.1565   14.1240   23.2609 C   0  0  0  0  0  0  0  0  0  0  0  0
   12.4719   15.0012   22.1914 C   0  0  0  0  0  0  0  0  0  0  0  0
   13.4628   15.7906   21.3375 C   0  0  0  0  0  0  0  0  0  0  0  0
   11.5620   14.0594   21.3398 C   0  0  1  0  0  0  0  0  0  0  0  0
   10.3410   13.6835   22.2047 C   0  0  0  0  0  0  0  0  0  0  0  0
    9.5344   14.5009   22.5976 O   0  0  0  0  0  0  0  0  0  0  0  0
   10.3133   12.3629   22.5842 N   0  0  0  0  0  0  0  0  0  0  0  0
    9.4805   11.7394   23.5259 C   0  0  0  0  0  0  0  0  0  0  0  0
    8.5958   12.4647   24.3012 C   0  0  0  0  0  0  0  0  0  0  0  0
    7.7574   11.8208   25.2466 C   0  0  0  0  0  0  0  0  0  0  0  0
    7.7965   10.4547   25.3859 C   0  0  0  0  0  0  0  0  0  0  0  0
    8.6633    9.6794   24.5714 C   0  0  0  0  0  0  0  0  0  0  0  0
    8.5349    8.3198   24.6844 N   0  0  0  0  0  0  0  0  0  0  0  0
    9.2576    7.5895   23.9013 C   0  0  0  0  0  0  0  0  0  0  0  0
    8.8579    5.8883   23.7984 Cl  0  0  0  0  0  0  0  0  0  0  0  0
   10.3245    8.0753   23.0921 C   0  0  0  0  0  0  0  0  0  0  0  0
   10.4786    9.4339   22.9776 C   0  0  0  0  0  0  0  0  0  0  0  0
    9.5745   10.3080   23.6671 C   0  0  0  0  0  0  0  0  0  0  0  0
   11.1821   14.5654   20.0148 N   0  0  0  0  0  0  0  0  0  0  0  0
   11.8157   14.3394   18.8393 C   0  0  0  0  0  0  0  0  0  0  0  0
   11.3356   15.1167   17.8922 N   0  0  0  0  0  0  0  0  0  0  0  0
   10.3810   15.8229   18.5610 C   0  0  0  0  0  0  0  0  0  0  0  0
   10.2554   15.5287   19.8412 N   0  0  0  0  0  0  0  0  0  0  0  0
  1  2  1  0
  2  3  1  0
  4  2  1  1
  4  5  1  0
  5  6  2  0
  5  7  1  0
  7  8  1  0
  8  9  2  0
  9 10  1  0
 10 11  2  0
 11 12  1  0
 12 13  2  0
 13 14  1  0
 14 15  1  0
 14 16  2  0
 16 17  1  0
 17 18  2  0
  4 19  1  0
 19 20  1  0
 20 21  2  0
 21 22  1  0
 22 23  2  0
 18  8  1  0
 23 19  1  0
 18 12  1  0
M  END
>  <ref_pdb>  (105) 
x0554_0A

>  <ref_mols>  (105) 
x0554_0A,x0566_0A

>  <original SMILES>  (105) 
CC(C)[C@@H](C(=O)Nc1cccc2nc(Cl)ccc12)n1cncn1

>  <IC50 (nM)>  (105) 
962.7865176128004

>  <CNNaffinity>  (105) 
6.01647

>  <rationale>  (105) 
-1

$$$$
Z5420226917
     RDKit          3D

 24 27  0  0  0  0  0  0  0  0999 V2000
   11.1454   14.5518   23.5420 O   0  0  0  0  0  0  0  0  0  0  0  0
   11.4355   13.6832   22.7409 C   0  0  0  0  0  0  0  0  0  0  0  0
   12.5524   13.8543   21.7459 C   0  0  0  0  0  0  0  0  0  0  0  0
   11.9949   14.3355   20.4562 C   0  0  0  0  0  0  0  0  0  0  0  0
   11.0823   15.3323   20.1899 C   0  0  0  0  0  0  0  0  0  0  0  0
   10.5158   16.4634   21.0077 C   0  0  0  0  0  0  0  0  0  0  0  0
    9.4222   17.2528   20.2603 C   0  0  0  0  0  0  0  0  0  0  0  0
    9.7557   17.4551   18.7733 C   0  0  0  0  0  0  0  0  0  0  0  0
    9.9597   16.1076   18.0761 C   0  0  0  0  0  0  0  0  0  0  0  0
   10.9343   15.3113   18.8157 N   0  0  0  0  0  0  0  0  0  0  0  0
   11.7597   14.3435   18.3453 C   0  0  0  0  0  0  0  0  0  0  0  0
   12.4112   13.7387   19.3053 N   0  0  0  0  0  0  0  0  0  0  0  0
   10.7743   12.4957   22.6251 N   0  0  0  0  0  0  0  0  0  0  0  0
    9.8661   11.9152   23.5256 C   0  0  0  0  0  0  0  0  0  0  0  0
    9.0370   12.6911   24.3060 C   0  0  0  0  0  0  0  0  0  0  0  0
    8.0524   12.0899   25.1355 C   0  0  0  0  0  0  0  0  0  0  0  0
    7.9187   10.7216   25.1675 C   0  0  0  0  0  0  0  0  0  0  0  0
    8.7766    9.9019   24.3858 C   0  0  0  0  0  0  0  0  0  0  0  0
    8.5472    8.5547   24.4464 N   0  0  0  0  0  0  0  0  0  0  0  0
    9.3052    7.7820   23.7400 C   0  0  0  0  0  0  0  0  0  0  0  0
    8.8595    6.0927   23.6453 Cl  0  0  0  0  0  0  0  0  0  0  0  0
   10.4502    8.2127   23.0135 C   0  0  0  0  0  0  0  0  0  0  0  0
   10.6891    9.5611   22.9295 C   0  0  0  0  0  0  0  0  0  0  0  0
    9.8034   10.4797   23.5814 C   0  0  0  0  0  0  0  0  0  0  0  0
  1  2  2  0
  2  3  1  0
  3  4  1  0
  4  5  2  0
  5  6  1  0
  6  7  1  0
  7  8  1  0
  8  9  1  0
  9 10  1  0
 10 11  1  0
 11 12  2  0
  2 13  1  0
 13 14  1  0
 14 15  2  0
 15 16  1  0
 16 17  2  0
 17 18  1  0
 18 19  2  0
 19 20  1  0
 20 21  1  0
 20 22  2  0
 22 23  1  0
 23 24  2  0
 12  4  1  0
 24 14  1  0
 10  5  1  0
 24 18  1  0
M  END
>  <ref_pdb>  (106) 
x0554_0A

>  <ref_mols>  (106) 
x0554_0A,x0566_0A

>  <original SMILES>  (106) 
O=C(Cc1ncn2c1CCCC2)Nc1cccc2nc(Cl)ccc12

>  <IC50 (nM)>  (106) 
972.8592218868075

>  <CNNaffinity>  (106) 
6.01195

>  <rationale>  (106) 
-1

$$$$
PV_002436915961
     RDKit          3D

 27 30  0  0  0  0  0  0  0  0999 V2000
   11.0712   14.5511   23.6674 O   0  0  0  0  0  0  0  0  0  0  0  0
   11.3177   13.7319   22.8038 C   0  0  0  0  0  0  0  0  0  0  0  0
   12.4502   13.8955   21.8011 C   0  0  0  0  0  0  0  0  0  0  0  0
   12.8668   15.3404   21.5579 C   0  0  0  0  0  0  0  0  0  0  0  0
   11.8562   16.0901   20.8150 N   0  0  0  0  0  0  0  0  0  0  0  0
   11.0597   16.9105   21.5640 N   0  0  0  0  0  0  0  0  0  0  0  0
   10.1787   17.6355   21.0283 N   0  0  0  0  0  0  0  0  0  0  0  0
   10.0113   17.6446   19.6311 C   0  0  0  0  0  0  0  0  0  0  0  0
    9.0569   18.5213   19.0743 C   0  0  0  0  0  0  0  0  0  0  0  0
    8.8931   18.5906   17.7024 C   0  0  0  0  0  0  0  0  0  0  0  0
    9.6673   17.7612   16.8561 C   0  0  0  0  0  0  0  0  0  0  0  0
   10.5873   16.8723   17.3915 C   0  0  0  0  0  0  0  0  0  0  0  0
   10.7707   16.8180   18.7906 C   0  0  0  0  0  0  0  0  0  0  0  0
   11.7510   15.9270   19.4220 C   0  0  0  0  0  0  0  0  0  0  0  0
   12.4552   15.1246   18.8334 O   0  0  0  0  0  0  0  0  0  0  0  0
   10.6670   12.5349   22.6896 N   0  0  0  0  0  0  0  0  0  0  0  0
    9.7804   11.9301   23.5923 C   0  0  0  0  0  0  0  0  0  0  0  0
    8.9333   12.6685   24.3881 C   0  0  0  0  0  0  0  0  0  0  0  0
    7.9687   12.0261   25.2122 C   0  0  0  0  0  0  0  0  0  0  0  0
    7.8705   10.6532   25.2172 C   0  0  0  0  0  0  0  0  0  0  0  0
    8.7418    9.8695   24.4149 C   0  0  0  0  0  0  0  0  0  0  0  0
    8.5500    8.5145   24.4434 N   0  0  0  0  0  0  0  0  0  0  0  0
    9.3299    7.7827   23.7165 C   0  0  0  0  0  0  0  0  0  0  0  0
    8.9344    6.0866   23.5703 Cl  0  0  0  0  0  0  0  0  0  0  0  0
   10.4618    8.2615   22.9998 C   0  0  0  0  0  0  0  0  0  0  0  0
   10.6570    9.6169   22.9485 C   0  0  0  0  0  0  0  0  0  0  0  0
    9.7488   10.4924   23.6225 C   0  0  0  0  0  0  0  0  0  0  0  0
  1  2  2  0
  2  3  1  0
  3  4  1  0
  4  5  1  0
  5  6  1  0
  6  7  2  0
  7  8  1  0
  8  9  2  0
  9 10  1  0
 10 11  2  0
 11 12  1  0
 12 13  2  0
 13 14  1  0
 14 15  2  0
  2 16  1  0
 16 17  1  0
 17 18  2  0
 18 19  1  0
 19 20  2  0
 20 21  1  0
 21 22  2  0
 22 23  1  0
 23 24  1  0
 23 25  2  0
 25 26  1  0
 26 27  2  0
 14  5  1  0
 27 17  1  0
 13  8  1  0
 27 21  1  0
M  END
>  <ref_pdb>  (107) 
x0554_0A

>  <ref_mols>  (107) 
x0554_0A,x0566_0A

>  <original SMILES>  (107) 
O=C(CCn1nnc2ccccc2c1=O)Nc1cccc2nc(Cl)ccc12

>  <IC50 (nM)>  (107) 
976.1577351201163

>  <CNNaffinity>  (107) 
6.01048

>  <rationale>  (107) 
-1

$$$$
Z5104254470
     RDKit          3D

 25 28  0  0  0  0  0  0  0  0999 V2000
   11.4761   17.4911   17.3858 O   0  0  0  0  0  0  0  0  0  0  0  0
   11.3369   16.5327   18.1133 C   0  0  0  0  0  0  0  0  0  0  0  0
   10.1516   16.4008   19.0507 C   0  0  0  0  0  0  0  0  0  0  0  0
   10.5616   15.9162   20.4505 C   0  0  0  0  0  0  0  0  0  0  0  0
   11.3820   14.6086   20.4246 C   0  0  0  0  0  0  0  0  0  0  0  0
   10.5320   13.5956   19.8771 O   0  0  0  0  0  0  0  0  0  0  0  0
   11.7238   14.1537   21.8511 C   0  0  0  0  0  0  0  0  0  0  0  0
   10.4566   14.0078   22.6882 C   0  0  0  0  0  0  0  0  0  0  0  0
    9.9868   14.9196   23.3441 O   0  0  0  0  0  0  0  0  0  0  0  0
    9.8998   12.7580   22.6183 N   0  0  0  0  0  0  0  0  0  0  0  0
    9.2443   12.0547   23.6316 C   0  0  0  0  0  0  0  0  0  0  0  0
    8.4221   12.6875   24.5347 C   0  0  0  0  0  0  0  0  0  0  0  0
    7.6662   11.9241   25.4684 C   0  0  0  0  0  0  0  0  0  0  0  0
    7.7375   10.5483   25.4525 C   0  0  0  0  0  0  0  0  0  0  0  0
    8.5919    9.8832   24.5307 C   0  0  0  0  0  0  0  0  0  0  0  0
    8.5488    8.5137   24.5277 N   0  0  0  0  0  0  0  0  0  0  0  0
    9.3280    7.8936   23.7032 C   0  0  0  0  0  0  0  0  0  0  0  0
    9.0427    6.1865   23.4584 Cl  0  0  0  0  0  0  0  0  0  0  0  0
   10.3595    8.5086   22.9406 C   0  0  0  0  0  0  0  0  0  0  0  0
   10.4071    9.8794   22.9172 C   0  0  0  0  0  0  0  0  0  0  0  0
    9.4358   10.6311   23.6589 C   0  0  0  0  0  0  0  0  0  0  0  0
   12.9913   14.5756   22.5458 C   0  0  0  0  0  0  0  0  0  0  0  0
   12.8200   13.1443   22.1105 C   0  0  0  0  0  0  0  0  0  0  0  0
   12.6303   14.8116   19.5191 C   0  0  0  0  0  0  0  0  0  0  0  0
   12.3192   15.3703   18.1147 C   0  0  0  0  0  0  0  0  0  0  0  0
  1  2  2  0
  2  3  1  0
  3  4  1  0
  4  5  1  0
  5  6  1  0
  5  7  1  0
  7  8  1  0
  8  9  2  0
  8 10  1  0
 10 11  1  0
 11 12  2  0
 12 13  1  0
 13 14  2  0
 14 15  1  0
 15 16  2  0
 16 17  1  0
 17 18  1  0
 17 19  2  0
 19 20  1  0
 20 21  2  0
  7 22  1  0
 22 23  1  0
  5 24  1  0
 24 25  1  0
 25  2  1  0
 23  7  1  0
 21 11  1  0
 21 15  1  0
M  END
>  <ref_pdb>  (108) 
x0554_0A

>  <ref_mols>  (108) 
x0554_0A,x0566_0A

>  <original SMILES>  (108) 
O=C1CCC(O)(C2(C(=O)Nc3cccc4nc(Cl)ccc34)CC2)CC1

>  <IC50 (nM)>  (108) 
977.2597229334458

>  <CNNaffinity>  (108) 
6.00999

>  <rationale>  (108) 
-1

$$$$
PV_002197053024
     RDKit          3D

 25 28  0  0  0  0  0  0  0  0999 V2000
   11.0206   14.5715   23.9410 O   0  0  0  0  0  0  0  0  0  0  0  0
   11.2919   13.8655   22.9880 C   0  0  0  0  0  0  0  0  0  0  0  0
   12.3277   14.3520   21.9460 C   0  0  0  0  0  0  0  0  0  0  0  0
   11.8318   14.7256   20.6141 N   0  0  0  0  0  0  0  0  0  0  0  0
   12.1384   13.9836   19.4885 N   0  0  0  0  0  0  0  0  0  0  0  0
   11.6954   14.6256   18.3902 C   0  0  0  0  0  0  0  0  0  0  0  0
   11.1337   15.7993   18.8106 C   0  0  0  0  0  0  0  0  0  0  0  0
   11.2351   15.8762   20.1947 C   0  0  0  0  0  0  0  0  0  0  0  0
   10.7831   16.8388   20.9835 N   0  0  0  0  0  0  0  0  0  0  0  0
   10.1015   17.7701   20.2893 C   0  0  0  0  0  0  0  0  0  0  0  0
    9.9127   17.8707   19.0093 N   0  0  0  0  0  0  0  0  0  0  0  0
   10.4764   16.9114   18.1685 C   0  0  0  0  0  0  0  0  0  0  0  0
   10.4018   17.0120   16.9600 O   0  0  0  0  0  0  0  0  0  0  0  0
   10.7548   12.6154   22.8112 N   0  0  0  0  0  0  0  0  0  0  0  0
    9.8227   11.9713   23.6523 C   0  0  0  0  0  0  0  0  0  0  0  0
    8.9420   12.6891   24.4333 C   0  0  0  0  0  0  0  0  0  0  0  0
    7.9596   12.0309   25.2210 C   0  0  0  0  0  0  0  0  0  0  0  0
    7.8661   10.6599   25.2053 C   0  0  0  0  0  0  0  0  0  0  0  0
    8.7598    9.8969   24.4092 C   0  0  0  0  0  0  0  0  0  0  0  0
    8.5673    8.5425   24.4256 N   0  0  0  0  0  0  0  0  0  0  0  0
    9.3504    7.8139   23.7007 C   0  0  0  0  0  0  0  0  0  0  0  0
    8.9545    6.1156   23.5481 Cl  0  0  0  0  0  0  0  0  0  0  0  0
   10.4822    8.3029   22.9919 C   0  0  0  0  0  0  0  0  0  0  0  0
   10.6888    9.6597   22.9601 C   0  0  0  0  0  0  0  0  0  0  0  0
    9.7829   10.5327   23.6422 C   0  0  0  0  0  0  0  0  0  0  0  0
  1  2  2  0
  2  3  1  0
  3  4  1  0
  4  5  1  0
  5  6  1  0
  6  7  2  0
  7  8  1  0
  8  9  2  0
  9 10  1  0
 10 11  2  0
 11 12  1  0
 12 13  2  0
  2 14  1  0
 14 15  1  0
 15 16  2  0
 16 17  1  0
 17 18  2  0
 18 19  1  0
 19 20  2  0
 20 21  1  0
 21 22  1  0
 21 23  2  0
 23 24  1  0
 24 25  2  0
  8  4  1  0
 25 15  1  0
 12  7  1  0
 25 19  1  0
M  END
>  <ref_pdb>  (109) 
x0554_0A

>  <ref_mols>  (109) 
x0554_0A,x0566_0A

>  <original SMILES>  (109) 
O=C(Cn1[nH]cc2c(=O)ncnc1-2)Nc1cccc2nc(Cl)ccc12

>  <IC50 (nM)>  (109) 
984.8724748828791

>  <CNNaffinity>  (109) 
6.00662

>  <rationale>  (109) 
-1

$$$$
PV_002526333110
     RDKit          3D

 25 27  0  0  0  0  0  0  0  0999 V2000
    9.3927   16.8770   16.0339 C   0  0  0  0  0  0  0  0  0  0  0  0
   10.1947   16.6121   17.1898 O   0  0  0  0  0  0  0  0  0  0  0  0
   10.9831   15.5059   17.1663 C   0  0  0  0  0  0  0  0  0  0  0  0
   11.1942   14.8779   16.1557 O   0  0  0  0  0  0  0  0  0  0  0  0
   11.5045   15.1984   18.5833 C   0  0  0  0  0  0  0  0  0  0  0  0
   11.3227   16.1140   19.6438 C   0  0  0  0  0  0  0  0  0  0  0  0
   11.7588   15.7585   20.9156 C   0  0  0  0  0  0  0  0  0  0  0  0
   12.3611   14.5119   21.1200 C   0  0  0  0  0  0  0  0  0  0  0  0
   12.7060   14.0987   22.5327 C   0  0  0  0  0  0  0  0  0  0  0  0
   11.4421   13.8713   23.3665 C   0  0  0  0  0  0  0  0  0  0  0  0
   11.0204   14.6918   24.1568 O   0  0  0  0  0  0  0  0  0  0  0  0
   10.8378   12.6741   23.0892 N   0  0  0  0  0  0  0  0  0  0  0  0
    9.8225   12.0204   23.7948 C   0  0  0  0  0  0  0  0  0  0  0  0
    8.8971   12.7225   24.5363 C   0  0  0  0  0  0  0  0  0  0  0  0
    7.8770   12.0431   25.2542 C   0  0  0  0  0  0  0  0  0  0  0  0
    7.8059   10.6687   25.2163 C   0  0  0  0  0  0  0  0  0  0  0  0
    8.7373    9.9247   24.4407 C   0  0  0  0  0  0  0  0  0  0  0  0
    8.5569    8.5680   24.4230 N   0  0  0  0  0  0  0  0  0  0  0  0
    9.3453    7.8649   23.6799 C   0  0  0  0  0  0  0  0  0  0  0  0
    8.9627    6.1670   23.4997 Cl  0  0  0  0  0  0  0  0  0  0  0  0
   10.4665    8.3800   22.9728 C   0  0  0  0  0  0  0  0  0  0  0  0
   10.6652    9.7385   22.9737 C   0  0  0  0  0  0  0  0  0  0  0  0
    9.7700   10.5846   23.7083 C   0  0  0  0  0  0  0  0  0  0  0  0
   12.5121   13.6801   20.0023 C   0  0  0  0  0  0  0  0  0  0  0  0
   12.1046   14.0086   18.7802 N   0  0  0  0  0  0  0  0  0  0  0  0
  1  2  1  0
  2  3  1  0
  3  4  2  0
  3  5  1  0
  5  6  2  0
  6  7  1  0
  7  8  2  0
  8  9  1  0
  9 10  1  0
 10 11  2  0
 10 12  1  0
 12 13  1  0
 13 14  2  0
 14 15  1  0
 15 16  2  0
 16 17  1  0
 17 18  2  0
 18 19  1  0
 19 20  1  0
 19 21  2  0
 21 22  1  0
 22 23  2  0
  8 24  1  0
 24 25  2  0
 25  5  1  0
 23 13  1  0
 23 17  1  0
M  END
>  <ref_pdb>  (110) 
x0554_0A

>  <ref_mols>  (110) 
x0554_0A,x0566_0A

>  <original SMILES>  (110) 
COC(=O)c1ccc(CC(=O)Nc2cccc3nc(Cl)ccc23)cn1

>  <IC50 (nM)>  (110) 
986.1432354967852

>  <CNNaffinity>  (110) 
6.00606

>  <rationale>  (110) 
-1

$$$$
PV_002295035364
     RDKit          3D

 24 27  0  0  0  0  0  0  0  0999 V2000
   10.8395   14.7505   23.5973 O   0  0  0  0  0  0  0  0  0  0  0  0
   11.2598   13.8979   22.8347 C   0  0  0  0  0  0  0  0  0  0  0  0
   12.4635   14.1834   21.9356 C   0  0  0  0  0  0  0  0  0  0  0  0
   12.1339   14.6293   20.5973 N   0  0  0  0  0  0  0  0  0  0  0  0
   12.5675   13.9274   19.5312 N   0  0  0  0  0  0  0  0  0  0  0  0
   12.1372   14.5567   18.4559 C   0  0  0  0  0  0  0  0  0  0  0  0
   11.3825   15.7222   18.7987 C   0  0  0  0  0  0  0  0  0  0  0  0
   10.7324   16.6560   18.0401 N   0  0  0  0  0  0  0  0  0  0  0  0
   10.1163   17.6090   18.7261 C   0  0  0  0  0  0  0  0  0  0  0  0
   10.1093   17.7065   20.1502 C   0  0  0  0  0  0  0  0  0  0  0  0
   10.7504   16.7501   20.9301 C   0  0  0  0  0  0  0  0  0  0  0  0
   11.4113   15.7265   20.2204 C   0  0  0  0  0  0  0  0  0  0  0  0
   10.7476   12.6308   22.7333 N   0  0  0  0  0  0  0  0  0  0  0  0
    9.8319   11.9924   23.5908 C   0  0  0  0  0  0  0  0  0  0  0  0
    8.9741   12.7158   24.3886 C   0  0  0  0  0  0  0  0  0  0  0  0
    8.0054   12.0658   25.1977 C   0  0  0  0  0  0  0  0  0  0  0  0
    7.9028   10.6958   25.1849 C   0  0  0  0  0  0  0  0  0  0  0  0
    8.7789    9.9235   24.3774 C   0  0  0  0  0  0  0  0  0  0  0  0
    8.5778    8.5698   24.3960 N   0  0  0  0  0  0  0  0  0  0  0  0
    9.3618    7.8356   23.6792 C   0  0  0  0  0  0  0  0  0  0  0  0
    8.9585    6.1391   23.5369 Cl  0  0  0  0  0  0  0  0  0  0  0  0
   10.5000    8.3157   22.9752 C   0  0  0  0  0  0  0  0  0  0  0  0
   10.7026    9.6732   22.9243 C   0  0  0  0  0  0  0  0  0  0  0  0
    9.7950   10.5526   23.5952 C   0  0  0  0  0  0  0  0  0  0  0  0
  1  2  2  0
  2  3  1  0
  3  4  1  0
  4  5  1  0
  5  6  2  0
  6  7  1  0
  7  8  2  0
  8  9  1  0
  9 10  2  0
 10 11  1  0
 11 12  2  0
  2 13  1  0
 13 14  1  0
 14 15  2  0
 15 16  1  0
 16 17  2  0
 17 18  1  0
 18 19  2  0
 19 20  1  0
 20 21  1  0
 20 22  2  0
 22 23  1  0
 23 24  2  0
 12  4  1  0
 24 14  1  0
 12  7  1  0
 24 18  1  0
M  END
>  <ref_pdb>  (111) 
x0554_0A

>  <ref_mols>  (111) 
x0554_0A,x0566_0A

>  <original SMILES>  (111) 
O=C(Cn1ncc2ncccc21)Nc1cccc2nc(Cl)ccc12

>  <IC50 (nM)>  (111) 
987.0973818528051

>  <CNNaffinity>  (111) 
6.00564

>  <rationale>  (111) 
-1

$$$$
PV_006773671065
     RDKit          3D

 26 29  0  0  0  0  0  0  0  0999 V2000
   10.1903   14.4576   23.3550 O   0  0  0  0  0  0  0  0  0  0  0  0
   10.6486   13.5381   22.7034 C   0  0  0  0  0  0  0  0  0  0  0  0
   10.0626   12.3031   22.6402 N   0  0  0  0  0  0  0  0  0  0  0  0
    9.3130   11.6649   23.6337 C   0  0  0  0  0  0  0  0  0  0  0  0
    8.4540   12.3631   24.4516 C   0  0  0  0  0  0  0  0  0  0  0  0
    7.6420   11.6798   25.3975 C   0  0  0  0  0  0  0  0  0  0  0  0
    7.7046   10.3087   25.4934 C   0  0  0  0  0  0  0  0  0  0  0  0
    8.5859    9.5741   24.6575 C   0  0  0  0  0  0  0  0  0  0  0  0
    8.5081    8.2104   24.7558 N   0  0  0  0  0  0  0  0  0  0  0  0
    9.2263    7.5179   23.9373 C   0  0  0  0  0  0  0  0  0  0  0  0
    8.8492    5.8162   23.7982 Cl  0  0  0  0  0  0  0  0  0  0  0  0
   10.2722    8.0426   23.1233 C   0  0  0  0  0  0  0  0  0  0  0  0
   10.3867    9.4069   23.0364 C   0  0  0  0  0  0  0  0  0  0  0  0
    9.4553   10.2389   23.7446 C   0  0  0  0  0  0  0  0  0  0  0  0
   11.9386   13.6226   21.9010 C   0  0  2  0  0  0  0  0  0  0  0  0
   13.0270   14.3689   22.7244 C   0  0  0  0  0  0  0  0  0  0  0  0
   13.4316   15.6418   21.9779 C   0  0  0  0  0  0  0  0  0  0  0  0
   12.1228   16.4026   21.7482 C   0  0  0  0  0  0  0  0  0  0  0  0
   11.3876   15.6965   20.6879 N   0  0  0  0  0  0  0  0  0  0  0  0
   10.6011   16.4031   19.8448 C   0  0  0  0  0  0  0  0  0  0  0  0
   10.3331   15.8737   18.6430 N   0  0  0  0  0  0  0  0  0  0  0  0
    9.5975   16.6219   17.8297 C   0  0  0  0  0  0  0  0  0  0  0  0
    9.0803   17.8592   18.1921 C   0  0  0  0  0  0  0  0  0  0  0  0
    9.3768   18.2730   19.4842 C   0  0  0  0  0  0  0  0  0  0  0  0
   10.1657   17.5902   20.2986 N   0  0  0  0  0  0  0  0  0  0  0  0
   11.5957   14.2582   20.5294 C   0  0  0  0  0  0  0  0  0  0  0  0
  1  2  2  0
  2  3  1  0
  3  4  1  0
  4  5  2  0
  5  6  1  0
  6  7  2  0
  7  8  1  0
  8  9  2  0
  9 10  1  0
 10 11  1  0
 10 12  2  0
 12 13  1  0
 13 14  2  0
 15  2  1  1
 15 16  1  0
 16 17  1  0
 17 18  1  0
 18 19  1  0
 19 20  1  0
 20 21  2  0
 21 22  1  0
 22 23  2  0
 23 24  1  0
 24 25  2  0
 19 26  1  0
 14  4  1  0
 26 15  1  0
 14  8  1  0
 25 20  1  0
M  END
>  <ref_pdb>  (112) 
x0554_0A

>  <ref_mols>  (112) 
x0554_0A,x0566_0A

>  <original SMILES>  (112) 
O=C(Nc1cccc2nc(Cl)ccc12)[C@@H]1CCCN(c2ncccn2)C1

>  <IC50 (nM)>  (112) 
991.927658230462

>  <CNNaffinity>  (112) 
6.00352

>  <rationale>  (112) 
-1

$$$$
Z3091962598
     RDKit          3D

 24 27  0  0  0  0  0  0  0  0999 V2000
   10.6155   15.1600   17.1640 C   0  0  0  0  0  0  0  0  0  0  0  0
   11.2626   15.0418   18.4544 N   0  0  0  0  0  0  0  0  0  0  0  0
   11.0067   14.1137   19.4042 C   0  0  0  0  0  0  0  0  0  0  0  0
   11.8183   14.4126   20.4751 C   0  0  0  0  0  0  0  0  0  0  0  0
   12.5737   15.5131   20.0368 C   0  0  0  0  0  0  0  0  0  0  0  0
   12.2342   15.8967   18.8184 N   0  0  0  0  0  0  0  0  0  0  0  0
   13.6529   16.1360   20.9059 C   0  0  0  0  0  0  0  0  0  0  0  0
   13.7493   15.5313   22.2143 C   0  0  0  0  0  0  0  0  0  0  0  0
   12.8131   14.6493   22.8456 C   0  0  0  0  0  0  0  0  0  0  0  0
   11.9476   13.7666   21.8287 C   0  0  1  0  0  0  0  0  0  0  0  0
   10.5923   13.4709   22.4900 C   0  0  0  0  0  0  0  0  0  0  0  0
    9.8134   14.3542   22.7959 O   0  0  0  0  0  0  0  0  0  0  0  0
   10.3732   12.1480   22.7691 N   0  0  0  0  0  0  0  0  0  0  0  0
    9.4793   11.5685   23.6743 C   0  0  0  0  0  0  0  0  0  0  0  0
    8.5748   12.3011   24.4159 C   0  0  0  0  0  0  0  0  0  0  0  0
    7.6877   11.6541   25.3198 C   0  0  0  0  0  0  0  0  0  0  0  0
    7.7130   10.2868   25.4636 C   0  0  0  0  0  0  0  0  0  0  0  0
    8.6094    9.5111   24.6797 C   0  0  0  0  0  0  0  0  0  0  0  0
    8.4867    8.1499   24.7811 N   0  0  0  0  0  0  0  0  0  0  0  0
    9.1935    7.4299   23.9759 C   0  0  0  0  0  0  0  0  0  0  0  0
    8.8113    5.7258   23.8600 Cl  0  0  0  0  0  0  0  0  0  0  0  0
   10.2644    7.9180   23.1757 C   0  0  0  0  0  0  0  0  0  0  0  0
   10.4354    9.2727   23.0961 C   0  0  0  0  0  0  0  0  0  0  0  0
    9.5398   10.1392   23.8011 C   0  0  0  0  0  0  0  0  0  0  0  0
  1  2  1  0
  2  3  1  0
  3  4  2  0
  4  5  1  0
  5  6  2  0
  5  7  1  0
  7  8  1  0
  8  9  1  0
  9 10  1  0
 10 11  1  1
 11 12  2  0
 11 13  1  0
 13 14  1  0
 14 15  2  0
 15 16  1  0
 16 17  2  0
 17 18  1  0
 18 19  2  0
 19 20  1  0
 20 21  1  0
 20 22  2  0
 22 23  1  0
 23 24  2  0
  6  2  1  0
 24 14  1  0
 10  4  1  0
 24 18  1  0
M  END
>  <ref_pdb>  (113) 
x0554_0A

>  <ref_mols>  (113) 
x0554_0A,x0566_0A

>  <original SMILES>  (113) 
Cn1cc2c(n1)CCC[C@H]2C(=O)Nc1cccc2nc(Cl)ccc12

>  <IC50 (nM)>  (113) 
993.642136583358

>  <CNNaffinity>  (113) 
6.00277

>  <rationale>  (113) 
-1

$$$$
Z5476520308
     RDKit          3D

 22 23  0  0  0  0  0  0  0  0999 V2000
   10.3476   16.5042   18.4789 C   0  0  0  0  0  0  0  0  0  0  0  0
   11.2629   15.5471   19.2720 C   0  0  0  0  0  0  0  0  0  0  0  0
   12.5508   15.2696   18.4532 C   0  0  0  0  0  0  0  0  0  0  0  0
   10.6232   14.2379   19.4966 C   0  0  0  0  0  0  0  0  0  0  0  0
   10.1912   13.2319   19.8605 N   0  0  0  0  0  0  0  0  0  0  0  0
   11.4346   16.0992   20.7332 C   0  0  0  0  0  0  0  0  0  0  0  0
   12.6123   15.5572   21.5533 C   0  0  0  0  0  0  0  0  0  0  0  0
   12.4681   14.0935   22.0112 C   0  0  0  0  0  0  0  0  0  0  0  0
   11.2348   13.8379   22.8750 C   0  0  0  0  0  0  0  0  0  0  0  0
   10.8481   14.6689   23.6781 O   0  0  0  0  0  0  0  0  0  0  0  0
   10.6631   12.6022   22.7184 N   0  0  0  0  0  0  0  0  0  0  0  0
    9.7722   11.9593   23.5916 C   0  0  0  0  0  0  0  0  0  0  0  0
    8.9231   12.6744   24.4135 C   0  0  0  0  0  0  0  0  0  0  0  0
    7.9740   12.0101   25.2373 C   0  0  0  0  0  0  0  0  0  0  0  0
    7.8857   10.6387   25.2234 C   0  0  0  0  0  0  0  0  0  0  0  0
    8.7600    9.8779   24.4004 C   0  0  0  0  0  0  0  0  0  0  0  0
    8.5767    8.5217   24.4104 N   0  0  0  0  0  0  0  0  0  0  0  0
    9.3659    7.8036   23.6801 C   0  0  0  0  0  0  0  0  0  0  0  0
    8.9752    6.1058   23.5130 Cl  0  0  0  0  0  0  0  0  0  0  0  0
   10.5011    8.3013   22.9796 C   0  0  0  0  0  0  0  0  0  0  0  0
   10.6868    9.6605   22.9347 C   0  0  0  0  0  0  0  0  0  0  0  0
    9.7619   10.5211   23.6116 C   0  0  0  0  0  0  0  0  0  0  0  0
  1  2  1  0
  2  3  1  0
  2  4  1  0
  4  5  3  0
  2  6  1  0
  6  7  1  0
  7  8  1  0
  8  9  1  0
  9 10  2  0
  9 11  1  0
 11 12  1  0
 12 13  2  0
 13 14  1  0
 14 15  2  0
 15 16  1  0
 16 17  2  0
 17 18  1  0
 18 19  1  0
 18 20  2  0
 20 21  1  0
 21 22  2  0
 22 12  1  0
 22 16  1  0
M  END
>  <ref_pdb>  (114) 
x0554_0A

>  <ref_mols>  (114) 
x0554_0A,x0566_0A

>  <original SMILES>  (114) 
CC(C)(C#N)CCCC(=O)Nc1cccc2nc(Cl)ccc12

>  <IC50 (nM)>  (114) 
995.8180638810426

>  <CNNaffinity>  (114) 
6.00182

>  <rationale>  (114) 
-1

$$$$
PV_002253014983
     RDKit          3D

 26 29  0  0  0  0  0  0  0  0999 V2000
   10.7897   14.7702   23.5726 O   0  0  0  0  0  0  0  0  0  0  0  0
   11.2529   13.8944   22.8728 C   0  0  0  0  0  0  0  0  0  0  0  0
   12.5411   14.1143   22.1036 C   0  0  0  0  0  0  0  0  0  0  0  0
   12.2422   14.3854   20.7209 N   0  0  0  0  0  0  0  0  0  0  0  0
   12.4934   13.5552   19.7390 N   0  0  0  0  0  0  0  0  0  0  0  0
   12.0286   14.1121   18.6606 N   0  0  0  0  0  0  0  0  0  0  0  0
   11.4889   15.3009   19.0393 C   0  0  0  0  0  0  0  0  0  0  0  0
   10.8015   16.2380   18.1159 C   0  0  0  0  0  0  0  0  0  0  0  0
   10.5122   17.5656   18.4959 C   0  0  0  0  0  0  0  0  0  0  0  0
    9.7632   18.3963   17.6588 C   0  0  0  0  0  0  0  0  0  0  0  0
    9.2829   17.9191   16.4366 C   0  0  0  0  0  0  0  0  0  0  0  0
    9.6126   16.6251   16.0329 C   0  0  0  0  0  0  0  0  0  0  0  0
   10.3792   15.7945   16.8457 C   0  0  0  0  0  0  0  0  0  0  0  0
   11.6170   15.4820   20.3534 N   0  0  0  0  0  0  0  0  0  0  0  0
   10.7013   12.6514   22.7076 N   0  0  0  0  0  0  0  0  0  0  0  0
    9.7952   11.9955   23.5644 C   0  0  0  0  0  0  0  0  0  0  0  0
    8.9398   12.7103   24.3767 C   0  0  0  0  0  0  0  0  0  0  0  0
    7.9928   12.0513   25.2064 C   0  0  0  0  0  0  0  0  0  0  0  0
    7.9055   10.6794   25.1961 C   0  0  0  0  0  0  0  0  0  0  0  0
    8.7762    9.9182   24.3707 C   0  0  0  0  0  0  0  0  0  0  0  0
    8.5823    8.5634   24.3848 N   0  0  0  0  0  0  0  0  0  0  0  0
    9.3726    7.8362   23.6642 C   0  0  0  0  0  0  0  0  0  0  0  0
    8.9792    6.1386   23.5109 Cl  0  0  0  0  0  0  0  0  0  0  0  0
   10.5118    8.3248   22.9628 C   0  0  0  0  0  0  0  0  0  0  0  0
   10.7030    9.6833   22.9130 C   0  0  0  0  0  0  0  0  0  0  0  0
    9.7826   10.5561   23.5809 C   0  0  0  0  0  0  0  0  0  0  0  0
  1  2  2  0
  2  3  1  0
  3  4  1  0
  4  5  1  0
  5  6  2  0
  6  7  1  0
  7  8  1  0
  8  9  2  0
  9 10  1  0
 10 11  2  0
 11 12  1  0
 12 13  2  0
  7 14  2  0
  2 15  1  0
 15 16  1  0
 16 17  2  0
 17 18  1  0
 18 19  2  0
 19 20  1  0
 20 21  2  0
 21 22  1  0
 22 23  1  0
 22 24  2  0
 24 25  1  0
 25 26  2  0
 14  4  1  0
 26 16  1  0
 13  8  1  0
 26 20  1  0
M  END
>  <ref_pdb>  (115) 
x0554_0A

>  <ref_mols>  (115) 
x0554_0A,x0566_0A

>  <original SMILES>  (115) 
O=C(Cn1nnc(-c2ccccc2)n1)Nc1cccc2nc(Cl)ccc12

>  <IC50 (nM)>  (115) 
999.6316542410831

>  <CNNaffinity>  (115) 
6.00016

>  <rationale>  (115) 
-1

$$$$
PV_002598194437
     RDKit          3D

 27 30  0  0  0  0  0  0  0  0999 V2000
   10.8110   14.7212   23.4511 O   0  0  0  0  0  0  0  0  0  0  0  0
   11.2130   13.8047   22.7519 C   0  0  0  0  0  0  0  0  0  0  0  0
   12.3763   13.9446   21.7653 C   0  0  0  0  0  0  0  0  0  0  0  0
   12.7878   15.3852   21.3856 C   0  0  0  0  0  0  0  0  0  0  0  0
   11.7473   16.1550   20.6193 C   0  0  0  0  0  0  0  0  0  0  0  0
   11.7304   16.1484   19.3356 N   0  0  0  0  0  0  0  0  0  0  0  0
   10.7594   16.8999   18.6879 C   0  0  0  0  0  0  0  0  0  0  0  0
   10.6711   16.8065   17.2839 C   0  0  0  0  0  0  0  0  0  0  0  0
    9.7567   17.5896   16.6012 C   0  0  0  0  0  0  0  0  0  0  0  0
    8.9493   18.5240   17.2935 C   0  0  0  0  0  0  0  0  0  0  0  0
    8.9981   18.5966   18.6761 C   0  0  0  0  0  0  0  0  0  0  0  0
    9.8689   17.7422   19.3821 C   0  0  0  0  0  0  0  0  0  0  0  0
    9.8470   17.6221   20.8437 C   0  0  0  0  0  0  0  0  0  0  0  0
    9.0454   18.1263   21.5977 O   0  0  0  0  0  0  0  0  0  0  0  0
   10.8385   16.8312   21.3886 N   0  0  0  0  0  0  0  0  0  0  0  0
   10.6925   12.5451   22.7590 N   0  0  0  0  0  0  0  0  0  0  0  0
    9.7918   11.9374   23.6415 C   0  0  0  0  0  0  0  0  0  0  0  0
    8.9376   12.6703   24.4373 C   0  0  0  0  0  0  0  0  0  0  0  0
    7.9692   12.0151   25.2473 C   0  0  0  0  0  0  0  0  0  0  0  0
    7.8752   10.6432   25.2417 C   0  0  0  0  0  0  0  0  0  0  0  0
    8.7542    9.8684   24.4399 C   0  0  0  0  0  0  0  0  0  0  0  0
    8.5550    8.5145   24.4602 N   0  0  0  0  0  0  0  0  0  0  0  0
    9.3282    7.7815   23.7292 C   0  0  0  0  0  0  0  0  0  0  0  0
    8.9170    6.0873   23.5797 Cl  0  0  0  0  0  0  0  0  0  0  0  0
   10.4610    8.2602   23.0135 C   0  0  0  0  0  0  0  0  0  0  0  0
   10.6691    9.6163   22.9714 C   0  0  0  0  0  0  0  0  0  0  0  0
    9.7664   10.4954   23.6557 C   0  0  0  0  0  0  0  0  0  0  0  0
  1  2  2  0
  2  3  1  0
  3  4  1  0
  4  5  1  0
  5  6  2  0
  6  7  1  0
  7  8  2  0
  8  9  1  0
  9 10  2  0
 10 11  1  0
 11 12  2  0
 12 13  1  0
 13 14  2  0
 13 15  1  0
  2 16  1  0
 16 17  1  0
 17 18  2  0
 18 19  1  0
 19 20  2  0
 20 21  1  0
 21 22  2  0
 22 23  1  0
 23 24  1  0
 23 25  2  0
 25 26  1  0
 26 27  2  0
 15  5  1  0
 27 17  1  0
 12  7  1  0
 27 21  1  0
M  END
>  <ref_pdb>  (116) 
x0554_0A

>  <ref_mols>  (116) 
x0554_0A,x0566_0A

>  <original SMILES>  (116) 
O=C(CCc1nc2ccccc2c(=O)[nH]1)Nc1cccc2nc(Cl)ccc12

>  <IC50 (nM)>  (116) 
1000.7140561956578

>  <CNNaffinity>  (116) 
5.99969

>  <rationale>  (116) 
-1

$$$$
Z3091962746
     RDKit          3D

 23 25  0  0  0  0  0  0  0  0999 V2000
    9.0409   15.5327   20.3832 C   0  0  0  0  0  0  0  0  0  0  0  0
   10.4843   16.0867   20.3455 C   0  0  0  0  0  0  0  0  0  0  0  0
   10.7647   16.9666   21.5694 C   0  0  0  0  0  0  0  0  0  0  0  0
   11.4709   14.9800   20.1071 C   0  0  0  0  0  0  0  0  0  0  0  0
   11.6715   14.4044   18.9385 N   0  0  0  0  0  0  0  0  0  0  0  0
   12.4926   13.3630   19.1666 N   0  0  0  0  0  0  0  0  0  0  0  0
   12.7846   13.2809   20.4135 N   0  0  0  0  0  0  0  0  0  0  0  0
   12.1868   14.3000   21.0346 N   0  0  0  0  0  0  0  0  0  0  0  0
   12.3866   14.4669   22.4708 C   0  0  0  0  0  0  0  0  0  0  0  0
   11.2061   13.9984   23.3259 C   0  0  0  0  0  0  0  0  0  0  0  0
   10.7608   14.7193   24.1999 O   0  0  0  0  0  0  0  0  0  0  0  0
   10.7294   12.7577   23.0141 N   0  0  0  0  0  0  0  0  0  0  0  0
    9.7529   12.0303   23.7200 C   0  0  0  0  0  0  0  0  0  0  0  0
    8.8166   12.6954   24.4867 C   0  0  0  0  0  0  0  0  0  0  0  0
    7.8439   11.9929   25.2416 C   0  0  0  0  0  0  0  0  0  0  0  0
    7.8032   10.6227   25.1921 C   0  0  0  0  0  0  0  0  0  0  0  0
    8.7288    9.9103   24.3856 C   0  0  0  0  0  0  0  0  0  0  0  0
    8.5679    8.5524   24.3746 N   0  0  0  0  0  0  0  0  0  0  0  0
    9.3753    7.8549   23.6497 C   0  0  0  0  0  0  0  0  0  0  0  0
    9.0179    6.1500   23.4834 Cl  0  0  0  0  0  0  0  0  0  0  0  0
   10.4981    8.3836   22.9543 C   0  0  0  0  0  0  0  0  0  0  0  0
   10.6631    9.7496   22.9338 C   0  0  0  0  0  0  0  0  0  0  0  0
    9.7433   10.5919   23.6412 C   0  0  0  0  0  0  0  0  0  0  0  0
  1  2  1  0
  2  3  1  0
  2  4  1  0
  4  5  2  0
  5  6  1  0
  6  7  2  0
  7  8  1  0
  8  9  1  0
  9 10  1  0
 10 11  2  0
 10 12  1  0
 12 13  1  0
 13 14  2  0
 14 15  1  0
 15 16  2  0
 16 17  1  0
 17 18  2  0
 18 19  1  0
 19 20  1  0
 19 21  2  0
 21 22  1  0
 22 23  2  0
  8  4  1  0
 23 13  1  0
 23 17  1  0
M  END
>  <ref_pdb>  (117) 
x0554_0A

>  <ref_mols>  (117) 
x0554_0A,x0566_0A

>  <original SMILES>  (117) 
CC(C)c1nnnn1CC(=O)Nc1cccc2nc(Cl)ccc12

>  <IC50 (nM)>  (117) 
1000.7601418421741

>  <CNNaffinity>  (117) 
5.99967

>  <rationale>  (117) 
-1

$$$$
PV_006874694741
     RDKit          3D

 27 29  0  0  0  0  0  0  0  0999 V2000
   10.5585   14.3155   16.5411 C   0  0  0  0  0  0  0  0  0  0  0  0
   10.5931   15.4748   17.5252 C   0  0  0  0  0  0  0  0  0  0  0  0
    9.1759   15.8093   17.9816 C   0  0  0  0  0  0  0  0  0  0  0  0
   11.2480   16.7021   16.9171 C   0  0  0  0  0  0  0  0  0  0  0  0
   11.4538   15.1588   18.6601 O   0  0  0  0  0  0  0  0  0  0  0  0
   11.0022   14.3372   19.6190 C   0  0  0  0  0  0  0  0  0  0  0  0
   10.3794   13.3166   19.4343 O   0  0  0  0  0  0  0  0  0  0  0  0
   11.3113   14.7929   20.8948 N   0  0  0  0  0  0  0  0  0  0  0  0
   11.9206   16.0829   21.1811 C   0  0  0  0  0  0  0  0  0  0  0  0
   13.4618   15.7558   21.4344 C   0  0  0  0  0  0  0  0  0  0  0  0
   13.4799   14.8470   22.4985 C   0  0  0  0  0  0  0  0  0  0  0  0
   12.4686   14.0873   22.9046 O   0  0  0  0  0  0  0  0  0  0  0  0
   11.4096   13.8138   21.9552 C   0  0  1  0  0  0  0  0  0  0  0  0
   10.1162   13.6254   22.8190 C   0  0  0  0  0  0  0  0  0  0  0  0
    9.5701   14.5202   23.4283 O   0  0  0  0  0  0  0  0  0  0  0  0
    9.6963   12.3173   22.8142 N   0  0  0  0  0  0  0  0  0  0  0  0
    8.9894   11.6318   23.8075 C   0  0  0  0  0  0  0  0  0  0  0  0
    8.1430   12.2897   24.6700 C   0  0  0  0  0  0  0  0  0  0  0  0
    7.4151   11.5692   25.6541 C   0  0  0  0  0  0  0  0  0  0  0  0
    7.5530   10.2035   25.7540 C   0  0  0  0  0  0  0  0  0  0  0  0
    8.4111    9.5080   24.8606 C   0  0  0  0  0  0  0  0  0  0  0  0
    8.4185    8.1421   24.9750 N   0  0  0  0  0  0  0  0  0  0  0  0
    9.0653    7.4737   24.0782 C   0  0  0  0  0  0  0  0  0  0  0  0
    8.7658    5.7490   23.9802 Cl  0  0  0  0  0  0  0  0  0  0  0  0
    9.9706    8.0466   23.1417 C   0  0  0  0  0  0  0  0  0  0  0  0
   10.0425    9.4128   23.0654 C   0  0  0  0  0  0  0  0  0  0  0  0
    9.1738   10.2097   23.8816 C   0  0  0  0  0  0  0  0  0  0  0  0
  1  2  1  0
  2  3  1  0
  2  4  1  0
  2  5  1  0
  5  6  1  0
  6  7  2  0
  6  8  1  0
  8  9  1  0
  9 10  1  0
 10 11  1  0
 11 12  1  0
 12 13  1  0
 13 14  1  1
 14 15  2  0
 14 16  1  0
 16 17  1  0
 17 18  2  0
 18 19  1  0
 19 20  2  0
 20 21  1  0
 21 22  2  0
 22 23  1  0
 23 24  1  0
 23 25  2  0
 25 26  1  0
 26 27  2  0
 13  8  1  0
 27 17  1  0
 27 21  1  0
M  END
>  <ref_pdb>  (118) 
x0554_0A

>  <ref_mols>  (118) 
x0554_0A,x0566_0A

>  <original SMILES>  (118) 
CC(C)(C)OC(=O)N1CCCO[C@H]1C(=O)Nc1cccc2nc(Cl)ccc12

>  <IC50 (nM)>  (118) 
1000.898411516342

>  <CNNaffinity>  (118) 
5.99961

>  <rationale>  (118) 
-1

$$$$
PV_006966335678
     RDKit          3D

 26 29  0  0  0  0  0  0  0  0999 V2000
   11.1082   14.6504   23.6045 O   0  0  0  0  0  0  0  0  0  0  0  0
   11.3882   13.8255   22.7553 C   0  0  0  0  0  0  0  0  0  0  0  0
   12.4385   14.1165   21.6587 C   0  0  0  0  0  0  0  0  0  0  0  0
   11.9059   14.4815   20.3431 N   0  0  0  0  0  0  0  0  0  0  0  0
   12.1721   13.7714   19.1757 C   0  0  0  0  0  0  0  0  0  0  0  0
   12.8489   12.7700   19.1264 O   0  0  0  0  0  0  0  0  0  0  0  0
   11.4286   14.4613   18.0411 C   0  0  0  0  0  0  0  0  0  0  0  0
   10.8866   15.6979   18.6879 C   0  0  0  0  0  0  0  0  0  0  0  0
   10.1783   16.7668   18.1608 C   0  0  0  0  0  0  0  0  0  0  0  0
    9.7248   17.7424   19.0495 C   0  0  0  0  0  0  0  0  0  0  0  0
    9.0284   18.7785   18.5520 F   0  0  0  0  0  0  0  0  0  0  0  0
    9.9579   17.6737   20.4284 C   0  0  0  0  0  0  0  0  0  0  0  0
   10.6843   16.5969   20.9587 C   0  0  0  0  0  0  0  0  0  0  0  0
   11.1533   15.6258   20.0678 C   0  0  0  0  0  0  0  0  0  0  0  0
   10.8268   12.5810   22.6801 N   0  0  0  0  0  0  0  0  0  0  0  0
    9.9039   11.9933   23.5642 C   0  0  0  0  0  0  0  0  0  0  0  0
    9.0688   12.7550   24.3513 C   0  0  0  0  0  0  0  0  0  0  0  0
    8.0713   12.1397   25.1554 C   0  0  0  0  0  0  0  0  0  0  0  0
    7.9274   10.7718   25.1553 C   0  0  0  0  0  0  0  0  0  0  0  0
    8.7889    9.9639   24.3671 C   0  0  0  0  0  0  0  0  0  0  0  0
    8.5553    8.6154   24.4001 N   0  0  0  0  0  0  0  0  0  0  0  0
    9.3352    7.8550   23.7022 C   0  0  0  0  0  0  0  0  0  0  0  0
    8.9140    6.1616   23.5873 Cl  0  0  0  0  0  0  0  0  0  0  0  0
   10.4851    8.3010   22.9915 C   0  0  0  0  0  0  0  0  0  0  0  0
   10.7164    9.6513   22.9252 C   0  0  0  0  0  0  0  0  0  0  0  0
    9.8287   10.5566   23.5889 C   0  0  0  0  0  0  0  0  0  0  0  0
  1  2  2  0
  2  3  1  0
  3  4  1  0
  4  5  1  0
  5  6  2  0
  5  7  1  0
  7  8  1  0
  8  9  2  0
  9 10  1  0
 10 11  1  0
 10 12  2  0
 12 13  1  0
 13 14  2  0
  2 15  1  0
 15 16  1  0
 16 17  2  0
 17 18  1  0
 18 19  2  0
 19 20  1  0
 20 21  2  0
 21 22  1  0
 22 23  1  0
 22 24  2  0
 24 25  1  0
 25 26  2  0
 14  4  1  0
 26 16  1  0
 14  8  1  0
 26 20  1  0
M  END
>  <ref_pdb>  (119) 
x0554_0A

>  <ref_mols>  (119) 
x0554_0A,x0566_0A

>  <original SMILES>  (119) 
O=C(CN1C(=O)Cc2cc(F)ccc21)Nc1cccc2nc(Cl)ccc12

>  <IC50 (nM)>  (119) 
1002.6976567039287

>  <CNNaffinity>  (119) 
5.99883

>  <rationale>  (119) 
-1

$$$$
PV_002142760397
     RDKit          3D

 24 26  0  0  0  0  0  0  0  0999 V2000
    9.2580   16.1940   17.3730 N   0  0  0  0  0  0  0  0  0  0  0  0
   10.7887   16.7595   17.6347 S   0  0  0  0  0  6  0  0  0  0  0  0
   11.4694   16.3914   16.4093 O   0  0  0  0  0  0  0  0  0  0  0  0
   10.5935   18.1197   18.0799 O   0  0  0  0  0  0  0  0  0  0  0  0
   11.3841   15.7801   18.9093 C   0  0  0  0  0  0  0  0  0  0  0  0
   11.7173   15.9428   20.2430 C   0  0  0  0  0  0  0  0  0  0  0  0
   12.1139   14.7220   20.6662 N   0  0  0  0  0  0  0  0  0  0  0  0
   12.5154   14.3228   21.9969 C   0  0  0  0  0  0  0  0  0  0  0  0
   11.3089   13.9727   22.8557 C   0  0  0  0  0  0  0  0  0  0  0  0
   10.8491   14.8048   23.6119 O   0  0  0  0  0  0  0  0  0  0  0  0
   10.8287   12.6977   22.7034 N   0  0  0  0  0  0  0  0  0  0  0  0
    9.8773   12.0444   23.5173 C   0  0  0  0  0  0  0  0  0  0  0  0
    9.0002   12.7753   24.2956 C   0  0  0  0  0  0  0  0  0  0  0  0
    8.0128   12.1420   25.0944 C   0  0  0  0  0  0  0  0  0  0  0  0
    7.9058   10.7738   25.0985 C   0  0  0  0  0  0  0  0  0  0  0  0
    8.7920    9.9909   24.3147 C   0  0  0  0  0  0  0  0  0  0  0  0
    8.5769    8.6404   24.3567 N   0  0  0  0  0  0  0  0  0  0  0  0
    9.3628    7.8865   23.6622 C   0  0  0  0  0  0  0  0  0  0  0  0
    8.9432    6.1921   23.5547 Cl  0  0  0  0  0  0  0  0  0  0  0  0
   10.5077    8.3458   22.9529 C   0  0  0  0  0  0  0  0  0  0  0  0
   10.7250    9.7015   22.8798 C   0  0  0  0  0  0  0  0  0  0  0  0
    9.8246   10.6029   23.5346 C   0  0  0  0  0  0  0  0  0  0  0  0
   12.0234   13.7960   19.7124 N   0  0  0  0  0  0  0  0  0  0  0  0
   11.6075   14.4293   18.6309 C   0  0  0  0  0  0  0  0  0  0  0  0
  1  2  1  0
  2  3  2  0
  2  4  2  0
  2  5  1  0
  5  6  2  0
  6  7  1  0
  7  8  1  0
  8  9  1  0
  9 10  2  0
  9 11  1  0
 11 12  1  0
 12 13  2  0
 13 14  1  0
 14 15  2  0
 15 16  1  0
 16 17  2  0
 17 18  1  0
 18 19  1  0
 18 20  2  0
 20 21  1  0
 21 22  2  0
  7 23  1  0
 23 24  2  0
 24  5  1  0
 22 12  1  0
 22 16  1  0
M  END
>  <ref_pdb>  (120) 
x0554_0A

>  <ref_mols>  (120) 
x0554_0A,x0566_0A

>  <original SMILES>  (120) 
NS(=O)(=O)c1cnn(CC(=O)Nc2cccc3nc(Cl)ccc23)c1

>  <IC50 (nM)>  (120) 
1004.5463962749203

>  <CNNaffinity>  (120) 
5.99803

>  <rationale>  (120) 
-1

$$$$
PV_006931766545
     RDKit          3D

 25 27  0  0  0  0  0  0  0  0999 V2000
   10.5621   15.8550   17.5927 C   0  0  0  0  0  0  0  0  0  0  0  0
   11.2973   15.1766   18.6483 N   0  0  0  0  0  0  0  0  0  0  0  0
   12.0775   14.1590   18.2873 N   0  0  0  0  0  0  0  0  0  0  0  0
   12.5679   13.6582   19.4068 C   0  0  0  0  0  0  0  0  0  0  0  0
   12.1163   14.3736   20.5356 C   0  0  0  0  0  0  0  0  0  0  0  0
   12.4128   14.1823   22.0033 C   0  0  0  0  0  0  0  0  0  0  0  0
   11.1717   13.9403   22.8624 C   0  0  0  0  0  0  0  0  0  0  0  0
   10.6781   14.7974   23.5613 O   0  0  0  0  0  0  0  0  0  0  0  0
   10.7036   12.6503   22.7905 N   0  0  0  0  0  0  0  0  0  0  0  0
    9.7891   12.0060   23.6332 C   0  0  0  0  0  0  0  0  0  0  0  0
    8.9234   12.7159   24.4406 C   0  0  0  0  0  0  0  0  0  0  0  0
    7.9655   12.0428   25.2456 C   0  0  0  0  0  0  0  0  0  0  0  0
    7.8846   10.6728   25.2214 C   0  0  0  0  0  0  0  0  0  0  0  0
    8.7655    9.9201   24.3994 C   0  0  0  0  0  0  0  0  0  0  0  0
    8.5760    8.5641   24.4000 N   0  0  0  0  0  0  0  0  0  0  0  0
    9.3663    7.8451   23.6747 C   0  0  0  0  0  0  0  0  0  0  0  0
    8.9746    6.1491   23.5068 Cl  0  0  0  0  0  0  0  0  0  0  0  0
   10.5021    8.3387   22.9727 C   0  0  0  0  0  0  0  0  0  0  0  0
   10.6895    9.6992   22.9369 C   0  0  0  0  0  0  0  0  0  0  0  0
    9.7746   10.5649   23.6229 C   0  0  0  0  0  0  0  0  0  0  0  0
   11.3169   15.3666   19.9938 C   0  0  0  0  0  0  0  0  0  0  0  0
   10.6316   16.4942   20.7092 C   0  0  0  0  0  0  0  0  0  0  0  0
   10.3313   17.5196   19.8832 F   0  0  0  0  0  0  0  0  0  0  0  0
    9.4911   16.1076   21.2962 F   0  0  0  0  0  0  0  0  0  0  0  0
   11.4332   16.9897   21.6713 F   0  0  0  0  0  0  0  0  0  0  0  0
  1  2  1  0
  2  3  1  0
  3  4  2  0
  4  5  1  0
  5  6  1  0
  6  7  1  0
  7  8  2  0
  7  9  1  0
  9 10  1  0
 10 11  2  0
 11 12  1  0
 12 13  2  0
 13 14  1  0
 14 15  2  0
 15 16  1  0
 16 17  1  0
 16 18  2  0
 18 19  1  0
 19 20  2  0
  5 21  2  0
 21 22  1  0
 22 23  1  0
 22 24  1  0
 22 25  1  0
 21  2  1  0
 20 10  1  0
 20 14  1  0
M  END
>  <ref_pdb>  (121) 
x0554_0A

>  <ref_mols>  (121) 
x0554_0A,x0566_0A

>  <original SMILES>  (121) 
Cn1ncc(CC(=O)Nc2cccc3nc(Cl)ccc23)c1C(F)(F)F

>  <IC50 (nM)>  (121) 
1005.8193816294911

>  <CNNaffinity>  (121) 
5.99748

>  <rationale>  (121) 
-1

$$$$
PV_002504756509
     RDKit          3D

 23 25  0  0  0  0  0  0  0  0999 V2000
   10.7523   16.1145   15.7643 N   0  0  0  0  0  0  0  0  0  0  0  0
   11.1602   15.7841   16.7969 C   0  0  0  0  0  0  0  0  0  0  0  0
   11.5891   15.4435   18.1485 C   0  0  0  0  0  0  0  0  0  0  0  0
   11.2259   16.2830   19.2157 C   0  0  0  0  0  0  0  0  0  0  0  0
   11.5299   15.8798   20.5131 C   0  0  0  0  0  0  0  0  0  0  0  0
   12.2177   14.6696   20.7021 C   0  0  0  0  0  0  0  0  0  0  0  0
   12.5238   14.2053   22.1097 C   0  0  0  0  0  0  0  0  0  0  0  0
   11.2754   13.9494   22.9659 C   0  0  0  0  0  0  0  0  0  0  0  0
   10.7630   14.8311   23.6293 O   0  0  0  0  0  0  0  0  0  0  0  0
   10.8016   12.6654   22.8870 N   0  0  0  0  0  0  0  0  0  0  0  0
    9.8294   12.0265   23.6715 C   0  0  0  0  0  0  0  0  0  0  0  0
    8.9431   12.7402   24.4500 C   0  0  0  0  0  0  0  0  0  0  0  0
    7.9604   12.0718   25.2314 C   0  0  0  0  0  0  0  0  0  0  0  0
    7.8655   10.6987   25.2010 C   0  0  0  0  0  0  0  0  0  0  0  0
    8.7593    9.9390   24.3973 C   0  0  0  0  0  0  0  0  0  0  0  0
    8.5692    8.5821   24.4003 N   0  0  0  0  0  0  0  0  0  0  0  0
    9.3596    7.8634   23.6728 C   0  0  0  0  0  0  0  0  0  0  0  0
    8.9788    6.1616   23.5232 Cl  0  0  0  0  0  0  0  0  0  0  0  0
   10.4857    8.3640   22.9606 C   0  0  0  0  0  0  0  0  0  0  0  0
   10.6846    9.7223   22.9326 C   0  0  0  0  0  0  0  0  0  0  0  0
    9.7815   10.5858   23.6352 C   0  0  0  0  0  0  0  0  0  0  0  0
   12.5700   13.9339   19.5569 C   0  0  0  0  0  0  0  0  0  0  0  0
   12.2711   14.3019   18.3129 N   0  0  0  0  0  0  0  0  0  0  0  0
  1  2  3  0
  2  3  1  0
  3  4  2  0
  4  5  1  0
  5  6  2  0
  6  7  1  0
  7  8  1  0
  8  9  2  0
  8 10  1  0
 10 11  1  0
 11 12  2  0
 12 13  1  0
 13 14  2  0
 14 15  1  0
 15 16  2  0
 16 17  1  0
 17 18  1  0
 17 19  2  0
 19 20  1  0
 20 21  2  0
  6 22  1  0
 22 23  2  0
 23  3  1  0
 21 11  1  0
 21 15  1  0
M  END
>  <ref_pdb>  (122) 
x0554_0A

>  <ref_mols>  (122) 
x0554_0A,x0566_0A

>  <original SMILES>  (122) 
N#Cc1ccc(CC(=O)Nc2cccc3nc(Cl)ccc23)cn1

>  <IC50 (nM)>  (122) 
1006.4448919214698

>  <CNNaffinity>  (122) 
5.99721

>  <rationale>  (122) 
-1

$$$$
PV_006794773929
     RDKit          3D

 22 24  0  0  0  0  0  0  0  0999 V2000
   10.8376   16.5877   20.8463 C   0  0  0  0  0  0  0  0  0  0  0  0
   11.4974   15.4674   20.1057 C   0  0  0  0  0  0  0  0  0  0  0  0
   11.4838   15.1821   18.7621 C   0  0  0  0  0  0  0  0  0  0  0  0
   10.5565   16.0417   17.5794 Cl  0  0  0  0  0  0  0  0  0  0  0  0
   12.3193   14.0635   18.6122 C   0  0  0  0  0  0  0  0  0  0  0  0
   12.7719   13.6535   19.7786 N   0  0  0  0  0  0  0  0  0  0  0  0
   12.2581   14.4991   20.6704 N   0  0  0  0  0  0  0  0  0  0  0  0
   12.5054   14.2418   22.0731 C   0  0  0  0  0  0  0  0  0  0  0  0
   11.2323   13.9388   22.8415 C   0  0  0  0  0  0  0  0  0  0  0  0
   10.6979   14.8174   23.4926 O   0  0  0  0  0  0  0  0  0  0  0  0
   10.7607   12.6587   22.7317 N   0  0  0  0  0  0  0  0  0  0  0  0
    9.8335   12.0085   23.5693 C   0  0  0  0  0  0  0  0  0  0  0  0
    8.9773   12.7305   24.3731 C   0  0  0  0  0  0  0  0  0  0  0  0
    8.0129   12.0772   25.1842 C   0  0  0  0  0  0  0  0  0  0  0  0
    7.9081   10.7072   25.1672 C   0  0  0  0  0  0  0  0  0  0  0  0
    8.7787    9.9363   24.3546 C   0  0  0  0  0  0  0  0  0  0  0  0
    8.5737    8.5828   24.3772 N   0  0  0  0  0  0  0  0  0  0  0  0
    9.3661    7.8485   23.6698 C   0  0  0  0  0  0  0  0  0  0  0  0
    8.9618    6.1528   23.5324 Cl  0  0  0  0  0  0  0  0  0  0  0  0
   10.5106    8.3291   22.9729 C   0  0  0  0  0  0  0  0  0  0  0  0
   10.7120    9.6867   22.9091 C   0  0  0  0  0  0  0  0  0  0  0  0
    9.7979   10.5675   23.5730 C   0  0  0  0  0  0  0  0  0  0  0  0
  1  2  1  0
  2  3  2  0
  3  4  1  0
  3  5  1  0
  5  6  2  0
  6  7  1  0
  7  8  1  0
  8  9  1  0
  9 10  2  0
  9 11  1  0
 11 12  1  0
 12 13  2  0
 13 14  1  0
 14 15  2  0
 15 16  1  0
 16 17  2  0
 17 18  1  0
 18 19  1  0
 18 20  2  0
 20 21  1  0
 21 22  2  0
  7  2  1  0
 22 12  1  0
 22 16  1  0
M  END
>  <ref_pdb>  (123) 
x0554_0A

>  <ref_mols>  (123) 
x0554_0A,x0566_0A

>  <original SMILES>  (123) 
Cc1c(Cl)cnn1CC(=O)Nc1cccc2nc(Cl)ccc12

>  <IC50 (nM)>  (123) 
1007.2331249284368

>  <CNNaffinity>  (123) 
5.99687

>  <rationale>  (123) 
-1

$$$$
Z3091963031
     RDKit          3D

 25 27  0  0  0  0  0  0  0  0999 V2000
    9.1139   16.5428   20.0811 C   0  0  0  0  0  0  0  0  0  0  0  0
    9.4828   16.5246   18.5887 C   0  0  0  0  0  0  0  0  0  0  0  0
    9.1247   15.1741   17.9432 C   0  0  0  0  0  0  0  0  0  0  0  0
   10.9656   16.9033   18.3847 C   0  0  0  0  0  0  0  0  0  0  0  0
   11.9317   15.9564   18.9045 N   0  0  0  0  0  0  0  0  0  0  0  0
   12.2063   15.8474   20.2774 N   0  0  0  0  0  0  0  0  0  0  0  0
   12.5843   14.5327   20.4673 C   0  0  0  0  0  0  0  0  0  0  0  0
   12.6600   14.0717   21.8724 C   0  0  0  0  0  0  0  0  0  0  0  0
   11.2495   13.8899   22.4009 C   0  0  0  0  0  0  0  0  0  0  0  0
   10.5349   14.8575   22.6223 O   0  0  0  0  0  0  0  0  0  0  0  0
   10.8704   12.5918   22.5706 N   0  0  0  0  0  0  0  0  0  0  0  0
    9.9022   12.0527   23.4275 C   0  0  0  0  0  0  0  0  0  0  0  0
    9.0763   12.8533   24.1867 C   0  0  0  0  0  0  0  0  0  0  0  0
    8.0970   12.2825   25.0456 C   0  0  0  0  0  0  0  0  0  0  0  0
    7.9490   10.9161   25.1122 C   0  0  0  0  0  0  0  0  0  0  0  0
    8.7875   10.0696   24.3359 C   0  0  0  0  0  0  0  0  0  0  0  0
    8.5383    8.7264   24.4268 N   0  0  0  0  0  0  0  0  0  0  0  0
    9.2909    7.9242   23.7463 C   0  0  0  0  0  0  0  0  0  0  0  0
    8.8338    6.2348   23.7001 Cl  0  0  0  0  0  0  0  0  0  0  0  0
   10.4361    8.3259   23.0059 C   0  0  0  0  0  0  0  0  0  0  0  0
   10.6906    9.6678   22.8876 C   0  0  0  0  0  0  0  0  0  0  0  0
    9.8203   10.6174   23.5161 C   0  0  0  0  0  0  0  0  0  0  0  0
   12.6587   13.8634   19.2988 C   0  0  0  0  0  0  0  0  0  0  0  0
   12.2186   14.7578   18.2446 C   0  0  0  0  0  0  0  0  0  0  0  0
   12.0462   14.5874   17.0467 O   0  0  0  0  0  0  0  0  0  0  0  0
  1  2  1  0
  2  3  1  0
  2  4  1  0
  4  5  1  0
  5  6  1  0
  6  7  1  0
  7  8  1  0
  8  9  1  0
  9 10  2  0
  9 11  1  0
 11 12  1  0
 12 13  2  0
 13 14  1  0
 14 15  2  0
 15 16  1  0
 16 17  2  0
 17 18  1  0
 18 19  1  0
 18 20  2  0
 20 21  1  0
 21 22  2  0
  7 23  2  0
 23 24  1  0
 24 25  2  0
 24  5  1  0
 22 12  1  0
 22 16  1  0
M  END
>  <ref_pdb>  (124) 
x0554_0A

>  <ref_mols>  (124) 
x0554_0A,x0566_0A

>  <original SMILES>  (124) 
CC(C)Cn1[nH]c(CC(=O)Nc2cccc3nc(Cl)ccc23)cc1=O

>  <IC50 (nM)>  (124) 
1012.0221081580572

>  <CNNaffinity>  (124) 
5.99481

>  <rationale>  (124) 
-1

$$$$
PV_007060307906
     RDKit          3D

 23 26  0  0  0  0  0  0  0  0999 V2000
   10.6632   14.8503   23.2855 O   0  0  0  0  0  0  0  0  0  0  0  0
   11.2090   13.9025   22.7446 C   0  0  0  0  0  0  0  0  0  0  0  0
   12.4749   14.0587   21.9378 C   0  0  0  0  0  0  0  0  0  0  0  0
   12.1802   14.7045   20.5884 C   0  0  1  0  0  0  0  0  0  0  0  0
   11.1230   14.0794   19.6582 C   0  0  0  0  0  0  0  0  0  0  0  0
   10.7792   15.2662   18.7401 C   0  0  0  0  0  0  0  0  0  0  0  0
   11.6396   15.3183   17.4356 C   0  0  0  0  0  0  0  0  0  0  0  0
   10.3619   15.1680   16.5749 C   0  0  0  0  0  0  0  0  0  0  0  0
    9.5131   15.2825   17.8578 C   0  0  0  0  0  0  0  0  0  0  0  0
   10.8571   16.4587   19.7170 C   0  0  0  0  0  0  0  0  0  0  0  0
   11.6853   16.0511   20.8590 N   0  0  0  0  0  0  0  0  0  0  0  0
   10.7132   12.6328   22.7469 N   0  0  0  0  0  0  0  0  0  0  0  0
    9.8038   12.0157   23.6117 C   0  0  0  0  0  0  0  0  0  0  0  0
    8.9477   12.7356   24.4182 C   0  0  0  0  0  0  0  0  0  0  0  0
    7.9927   12.0698   25.2338 C   0  0  0  0  0  0  0  0  0  0  0  0
    7.9061   10.6978   25.2146 C   0  0  0  0  0  0  0  0  0  0  0  0
    8.7817    9.9370   24.3936 C   0  0  0  0  0  0  0  0  0  0  0  0
    8.5831    8.5823   24.3942 N   0  0  0  0  0  0  0  0  0  0  0  0
    9.3700    7.8590   23.6670 C   0  0  0  0  0  0  0  0  0  0  0  0
    8.9796    6.1629   23.5086 Cl  0  0  0  0  0  0  0  0  0  0  0  0
   10.5054    8.3462   22.9620 C   0  0  0  0  0  0  0  0  0  0  0  0
   10.6961    9.7037   22.9245 C   0  0  0  0  0  0  0  0  0  0  0  0
    9.7877   10.5750   23.6133 C   0  0  0  0  0  0  0  0  0  0  0  0
  1  2  2  0
  2  3  1  0
  4  3  1  1
  4  5  1  0
  5  6  1  0
  6  7  1  0
  7  8  1  0
  8  9  1  0
  6 10  1  0
 10 11  1  0
  2 12  1  0
 12 13  1  0
 13 14  2  0
 14 15  1  0
 15 16  2  0
 16 17  1  0
 17 18  2  0
 18 19  1  0
 19 20  1  0
 19 21  2  0
 21 22  1  0
 22 23  2  0
 11  4  1  0
 23 13  1  0
  9  6  1  0
 23 17  1  0
M  END
>  <ref_pdb>  (125) 
x0554_0A

>  <ref_mols>  (125) 
x0554_0A,x0566_0A

>  <original SMILES>  (125) 
O=C(C[C@H]1CC2(CCC2)CN1)Nc1cccc2nc(Cl)ccc12

>  <IC50 (nM)>  (125) 
1013.3745659318984

>  <CNNaffinity>  (125) 
5.99423

>  <rationale>  (125) 
-1

$$$$
PV_002278003748
     RDKit          3D

 27 30  0  0  0  0  0  0  0  0999 V2000
    9.4038   17.4564   15.5870 O   0  0  0  0  0  0  0  0  0  0  0  0
    9.7092   17.6248   16.7473 C   0  0  0  0  0  0  0  0  0  0  0  0
    9.2348   18.7902   17.6214 C   0  0  0  0  0  0  0  0  0  0  0  0
    9.0246   18.4499   19.0005 O   0  0  0  0  0  0  0  0  0  0  0  0
    9.9664   17.6184   19.5589 C   0  0  0  0  0  0  0  0  0  0  0  0
   10.0482   17.5618   20.9476 C   0  0  0  0  0  0  0  0  0  0  0  0
   11.0153   16.7555   21.5563 C   0  0  0  0  0  0  0  0  0  0  0  0
   11.9142   16.0070   20.7765 C   0  0  0  0  0  0  0  0  0  0  0  0
   12.9794   15.1731   21.4534 C   0  0  0  0  0  0  0  0  0  0  0  0
   12.5009   13.7546   21.8091 C   0  0  0  0  0  0  0  0  0  0  0  0
   11.3620   13.6612   22.8214 C   0  0  0  0  0  0  0  0  0  0  0  0
   11.1511   14.4935   23.6843 O   0  0  0  0  0  0  0  0  0  0  0  0
   10.6327   12.5100   22.6864 N   0  0  0  0  0  0  0  0  0  0  0  0
    9.7644   11.9104   23.6056 C   0  0  0  0  0  0  0  0  0  0  0  0
    8.9305   12.6522   24.4102 C   0  0  0  0  0  0  0  0  0  0  0  0
    7.9709   12.0077   25.2407 C   0  0  0  0  0  0  0  0  0  0  0  0
    7.8683   10.6333   25.2423 C   0  0  0  0  0  0  0  0  0  0  0  0
    8.7353    9.8508   24.4332 C   0  0  0  0  0  0  0  0  0  0  0  0
    8.5464    8.4949   24.4615 N   0  0  0  0  0  0  0  0  0  0  0  0
    9.3243    7.7651   23.7297 C   0  0  0  0  0  0  0  0  0  0  0  0
    8.9255    6.0695   23.5674 Cl  0  0  0  0  0  0  0  0  0  0  0  0
   10.4582    8.2459   23.0165 C   0  0  0  0  0  0  0  0  0  0  0  0
   10.6554    9.6010   22.9673 C   0  0  0  0  0  0  0  0  0  0  0  0
    9.7391   10.4737   23.6373 C   0  0  0  0  0  0  0  0  0  0  0  0
   11.7845   16.0191   19.3749 C   0  0  0  0  0  0  0  0  0  0  0  0
   10.7962   16.7910   18.7643 C   0  0  0  0  0  0  0  0  0  0  0  0
   10.6070   16.7981   17.3669 N   0  0  0  0  0  0  0  0  0  0  0  0
  1  2  2  0
  2  3  1  0
  3  4  1  0
  4  5  1  0
  5  6  2  0
  6  7  1  0
  7  8  2  0
  8  9  1  0
  9 10  1  0
 10 11  1  0
 11 12  2  0
 11 13  1  0
 13 14  1  0
 14 15  2  0
 15 16  1  0
 16 17  2  0
 17 18  1  0
 18 19  2  0
 19 20  1  0
 20 21  1  0
 20 22  2  0
 22 23  1  0
 23 24  2  0
  8 25  1  0
 25 26  2  0
 26 27  1  0
 27  2  1  0
 26  5  1  0
 24 14  1  0
 24 18  1  0
M  END
>  <ref_pdb>  (126) 
x0554_0A

>  <ref_mols>  (126) 
x0554_0A,x0566_0A

>  <original SMILES>  (126) 
O=C1COc2ccc(CCC(=O)Nc3cccc4nc(Cl)ccc34)cc2N1

>  <IC50 (nM)>  (126) 
1014.9391378625088

>  <CNNaffinity>  (126) 
5.99356

>  <rationale>  (126) 
-1

$$$$
PV_002246814361
     RDKit          3D

 24 27  0  0  0  0  0  0  0  0999 V2000
   10.8710   14.7071   23.6812 O   0  0  0  0  0  0  0  0  0  0  0  0
   11.2897   13.8669   22.9078 C   0  0  0  0  0  0  0  0  0  0  0  0
   12.5312   14.1269   22.0338 C   0  0  0  0  0  0  0  0  0  0  0  0
   12.2289   14.4234   20.6427 N   0  0  0  0  0  0  0  0  0  0  0  0
   12.6399   13.5884   19.6626 N   0  0  0  0  0  0  0  0  0  0  0  0
   12.2353   14.0207   18.5248 N   0  0  0  0  0  0  0  0  0  0  0  0
   11.5278   15.1776   18.7279 C   0  0  0  0  0  0  0  0  0  0  0  0
   10.8621   16.0229   17.8127 C   0  0  0  0  0  0  0  0  0  0  0  0
   10.2392   17.1451   18.3264 C   0  0  0  0  0  0  0  0  0  0  0  0
   10.2448   17.4291   19.7243 C   0  0  0  0  0  0  0  0  0  0  0  0
   10.8745   16.5917   20.6359 C   0  0  0  0  0  0  0  0  0  0  0  0
   11.5190   15.4576   20.1042 C   0  0  0  0  0  0  0  0  0  0  0  0
   10.7125   12.6338   22.7415 N   0  0  0  0  0  0  0  0  0  0  0  0
    9.7981   11.9882   23.5966 C   0  0  0  0  0  0  0  0  0  0  0  0
    8.9404   12.7026   24.4064 C   0  0  0  0  0  0  0  0  0  0  0  0
    7.9784   12.0416   25.2198 C   0  0  0  0  0  0  0  0  0  0  0  0
    7.8951   10.6701   25.2040 C   0  0  0  0  0  0  0  0  0  0  0  0
    8.7717    9.9081   24.3862 C   0  0  0  0  0  0  0  0  0  0  0  0
    8.5763    8.5533   24.3931 N   0  0  0  0  0  0  0  0  0  0  0  0
    9.3659    7.8261   23.6731 C   0  0  0  0  0  0  0  0  0  0  0  0
    8.9646    6.1320   23.5211 Cl  0  0  0  0  0  0  0  0  0  0  0  0
   10.5065    8.3124   22.9744 C   0  0  0  0  0  0  0  0  0  0  0  0
   10.6966    9.6724   22.9299 C   0  0  0  0  0  0  0  0  0  0  0  0
    9.7803   10.5469   23.6010 C   0  0  0  0  0  0  0  0  0  0  0  0
  1  2  2  0
  2  3  1  0
  3  4  1  0
  4  5  1  0
  5  6  2  0
  6  7  1  0
  7  8  2  0
  8  9  1  0
  9 10  2  0
 10 11  1  0
 11 12  2  0
  2 13  1  0
 13 14  1  0
 14 15  2  0
 15 16  1  0
 16 17  2  0
 17 18  1  0
 18 19  2  0
 19 20  1  0
 20 21  1  0
 20 22  2  0
 22 23  1  0
 23 24  2  0
 12  4  1  0
 24 14  1  0
 12  7  1  0
 24 18  1  0
M  END
>  <ref_pdb>  (127) 
x0554_0A

>  <ref_mols>  (127) 
x0554_0A,x0566_0A

>  <original SMILES>  (127) 
O=C(Cn1nnc2ccccc21)Nc1cccc2nc(Cl)ccc12

>  <IC50 (nM)>  (127) 
1018.0755321872554

>  <CNNaffinity>  (127) 
5.99222

>  <rationale>  (127) 
-1

$$$$
PV_002387555796
     RDKit          3D

 26 29  0  0  0  0  0  0  0  0999 V2000
   10.9965   14.5750   24.1561 O   0  0  0  0  0  0  0  0  0  0  0  0
   11.2965   13.8993   23.1926 C   0  0  0  0  0  0  0  0  0  0  0  0
   12.4314   14.3649   22.2344 C   0  0  0  0  0  0  0  0  0  0  0  0
   12.1597   14.6546   20.8030 N   0  0  0  0  0  0  0  0  0  0  0  0
   12.4616   13.7386   19.8151 C   0  0  0  0  0  0  0  0  0  0  0  0
   12.2254   13.8832   18.5697 N   0  0  0  0  0  0  0  0  0  0  0  0
   11.5970   15.0370   18.1331 C   0  0  0  0  0  0  0  0  0  0  0  0
   11.2156   15.1168   16.7783 C   0  0  0  0  0  0  0  0  0  0  0  0
   10.5065   16.2127   16.3252 C   0  0  0  0  0  0  0  0  0  0  0  0
   10.2324   17.2889   17.2019 C   0  0  0  0  0  0  0  0  0  0  0  0
   10.6507   17.2483   18.5208 C   0  0  0  0  0  0  0  0  0  0  0  0
   11.3076   16.0949   19.0043 C   0  0  0  0  0  0  0  0  0  0  0  0
   11.6525   15.9265   20.4247 C   0  0  0  0  0  0  0  0  0  0  0  0
   11.4929   16.7897   21.2674 O   0  0  0  0  0  0  0  0  0  0  0  0
   10.7368   12.6775   22.9258 N   0  0  0  0  0  0  0  0  0  0  0  0
    9.7911   11.9932   23.7146 C   0  0  0  0  0  0  0  0  0  0  0  0
    8.8873   12.6838   24.4913 C   0  0  0  0  0  0  0  0  0  0  0  0
    7.9050   12.0030   25.2574 C   0  0  0  0  0  0  0  0  0  0  0  0
    7.8426   10.6313   25.2260 C   0  0  0  0  0  0  0  0  0  0  0  0
    8.7498    9.8946   24.4220 C   0  0  0  0  0  0  0  0  0  0  0  0
    8.5720    8.5384   24.4196 N   0  0  0  0  0  0  0  0  0  0  0  0
    9.3638    7.8303   23.6847 C   0  0  0  0  0  0  0  0  0  0  0  0
    8.9889    6.1315   23.5094 Cl  0  0  0  0  0  0  0  0  0  0  0  0
   10.4846    8.3424   22.9753 C   0  0  0  0  0  0  0  0  0  0  0  0
   10.6711    9.7030   22.9575 C   0  0  0  0  0  0  0  0  0  0  0  0
    9.7646   10.5554   23.6646 C   0  0  0  0  0  0  0  0  0  0  0  0
  1  2  2  0
  2  3  1  0
  3  4  1  0
  4  5  1  0
  5  6  2  0
  6  7  1  0
  7  8  2  0
  8  9  1  0
  9 10  2  0
 10 11  1  0
 11 12  2  0
 12 13  1  0
 13 14  2  0
  2 15  1  0
 15 16  1  0
 16 17  2  0
 17 18  1  0
 18 19  2  0
 19 20  1  0
 20 21  2  0
 21 22  1  0
 22 23  1  0
 22 24  2  0
 24 25  1  0
 25 26  2  0
 13  4  1  0
 26 16  1  0
 12  7  1  0
 26 20  1  0
M  END
>  <ref_pdb>  (128) 
x0554_0A

>  <ref_mols>  (128) 
x0554_0A,x0566_0A

>  <original SMILES>  (128) 
O=C(Cn1cnc2ccccc2c1=O)Nc1cccc2nc(Cl)ccc12

>  <IC50 (nM)>  (128) 
1026.1243651933414

>  <CNNaffinity>  (128) 
5.9888

>  <rationale>  (128) 
-1

$$$$
Z3091962364
     RDKit          3D

 27 29  0  0  0  0  0  0  0  0999 V2000
   15.1833   12.4333   24.5940 C   0  0  0  0  0  0  0  0  0  0  0  0
   13.8439   12.4571   25.0092 O   0  0  0  0  0  0  0  0  0  0  0  0
   13.0523   13.3736   24.2855 C   0  0  0  0  0  0  0  0  0  0  0  0
   13.0593   13.2155   22.7925 C   0  0  0  0  0  0  0  0  0  0  0  0
   12.1955   14.0572   22.0288 C   0  0  0  0  0  0  0  0  0  0  0  0
   10.6294   13.7056   22.3268 C   0  0  0  0  0  0  0  0  0  0  0  0
    9.7359   14.5202   22.2336 O   0  0  0  0  0  0  0  0  0  0  0  0
   10.4219   12.3865   22.6564 N   0  0  0  0  0  0  0  0  0  0  0  0
    9.4399   11.8454   23.4975 C   0  0  0  0  0  0  0  0  0  0  0  0
    8.5336   12.6213   24.1852 C   0  0  0  0  0  0  0  0  0  0  0  0
    7.6537   12.0307   25.1331 C   0  0  0  0  0  0  0  0  0  0  0  0
    7.6768   10.6712   25.3399 C   0  0  0  0  0  0  0  0  0  0  0  0
    8.5549    9.8458   24.5872 C   0  0  0  0  0  0  0  0  0  0  0  0
    8.4479    8.4972   24.7970 N   0  0  0  0  0  0  0  0  0  0  0  0
    9.1276    7.7170   24.0217 C   0  0  0  0  0  0  0  0  0  0  0  0
    8.7188    6.0153   24.0498 Cl  0  0  0  0  0  0  0  0  0  0  0  0
   10.1238    8.1488   23.1002 C   0  0  0  0  0  0  0  0  0  0  0  0
   10.2844    9.4981   22.9125 C   0  0  0  0  0  0  0  0  0  0  0  0
    9.4597   10.4161   23.6454 C   0  0  0  0  0  0  0  0  0  0  0  0
   12.4568   14.0471   20.4560 C   0  0  0  0  0  0  0  0  0  0  0  0
   11.4471   14.9291   19.7124 C   0  0  0  0  0  0  0  0  0  0  0  0
   11.3351   16.2425   20.3701 N   0  0  0  0  0  0  0  0  0  0  0  0
   10.1668   16.9580   20.4849 C   0  0  0  0  0  0  0  0  0  0  0  0
    8.9787   16.4774   19.7279 C   0  0  0  0  0  0  0  0  0  0  0  0
   10.0793   17.9574   21.1837 O   0  0  0  0  0  0  0  0  0  0  0  0
   12.3894   16.5861   21.3142 C   0  0  0  0  0  0  0  0  0  0  0  0
   12.4908   15.5800   22.4463 C   0  0  0  0  0  0  0  0  0  0  0  0
  1  2  1  0
  2  3  1  0
  3  4  1  0
  4  5  1  0
  5  6  1  0
  6  7  2  0
  6  8  1  0
  8  9  1  0
  9 10  2  0
 10 11  1  0
 11 12  2  0
 12 13  1  0
 13 14  2  0
 14 15  1  0
 15 16  1  0
 15 17  2  0
 17 18  1  0
 18 19  2  0
  5 20  1  0
 20 21  1  0
 21 22  1  0
 22 23  1  0
 23 24  1  0
 23 25  2  0
 22 26  1  0
 26 27  1  0
 27  5  1  0
 19  9  1  0
 19 13  1  0
M  END
>  <ref_pdb>  (129) 
x0554_0A

>  <ref_mols>  (129) 
x0554_0A,x0566_0A

>  <original SMILES>  (129) 
COCCC1(C(=O)Nc2cccc3nc(Cl)ccc23)CCN(C(C)=O)CC1

>  <IC50 (nM)>  (129) 
1027.519328338538

>  <CNNaffinity>  (129) 
5.98821

>  <rationale>  (129) 
-1

$$$$
PV_002225322220
     RDKit          3D

 22 24  0  0  0  0  0  0  0  0999 V2000
   10.6575   16.6577   20.9938 C   0  0  0  0  0  0  0  0  0  0  0  0
   11.3946   15.6301   20.1817 C   0  0  0  0  0  0  0  0  0  0  0  0
   11.4791   15.5503   18.8265 C   0  0  0  0  0  0  0  0  0  0  0  0
   10.7176   16.7132   17.5138 Br  0  0  0  0  0  0  0  0  0  0  0  0
   12.2557   14.3621   18.5532 C   0  0  0  0  0  0  0  0  0  0  0  0
   12.6539   13.7921   19.6639 N   0  0  0  0  0  0  0  0  0  0  0  0
   12.1445   14.5617   20.6600 N   0  0  0  0  0  0  0  0  0  0  0  0
   12.4774   14.3110   22.0544 C   0  0  0  0  0  0  0  0  0  0  0  0
   11.2487   13.8427   22.8041 C   0  0  0  0  0  0  0  0  0  0  0  0
   10.6518   14.6610   23.4846 O   0  0  0  0  0  0  0  0  0  0  0  0
   10.8916   12.5068   22.8067 N   0  0  0  0  0  0  0  0  0  0  0  0
    9.8922   11.9202   23.5902 C   0  0  0  0  0  0  0  0  0  0  0  0
    9.0118   12.7022   24.3521 C   0  0  0  0  0  0  0  0  0  0  0  0
    8.0236   12.1207   25.1509 C   0  0  0  0  0  0  0  0  0  0  0  0
    7.9067   10.7321   25.1784 C   0  0  0  0  0  0  0  0  0  0  0  0
    8.7565    9.9357   24.4172 C   0  0  0  0  0  0  0  0  0  0  0  0
    8.5487    8.6157   24.4750 N   0  0  0  0  0  0  0  0  0  0  0  0
    9.3083    7.8093   23.7316 C   0  0  0  0  0  0  0  0  0  0  0  0
    8.8793    6.1192   23.6388 Cl  0  0  0  0  0  0  0  0  0  0  0  0
   10.3772    8.2996   22.9786 C   0  0  0  0  0  0  0  0  0  0  0  0
   10.6104    9.6703   22.8977 C   0  0  0  0  0  0  0  0  0  0  0  0
    9.7654   10.5214   23.6196 C   0  0  0  0  0  0  0  0  0  0  0  0
  1  2  1  0
  2  3  2  0
  3  4  1  0
  3  5  1  0
  5  6  2  0
  6  7  1  0
  7  8  1  0
  8  9  1  0
  9 10  2  0
  9 11  1  0
 11 12  1  0
 12 13  2  0
 13 14  1  0
 14 15  2  0
 15 16  1  0
 16 17  2  0
 17 18  1  0
 18 19  1  0
 18 20  2  0
 20 21  1  0
 21 22  2  0
  7  2  1  0
 22 12  1  0
 22 16  1  0
M  END
>  <ref_pdb>  (130) 
x0554_0A

>  <ref_mols>  (130) 
x0554_0A,x0566_0A

>  <original SMILES>  (130) 
Cc1c(Br)cnn1CC(=O)Nc1cccc2nc(Cl)ccc12

>  <IC50 (nM)>  (130) 
1029.6271835279372

>  <CNNaffinity>  (130) 
5.98732

>  <rationale>  (130) 
-1

$$$$
Z3584328894
     RDKit          3D

 23 26  0  0  0  0  0  0  0  0999 V2000
   10.9049   14.6620   23.5972 O   0  0  0  0  0  0  0  0  0  0  0  0
   11.2785   13.7877   22.8383 C   0  0  0  0  0  0  0  0  0  0  0  0
   12.3675   14.0206   21.8165 C   0  0  0  0  0  0  0  0  0  0  0  0
   11.8642   14.6686   20.5122 C   0  0  1  0  0  0  0  0  0  0  0  0
   13.0822   14.8813   19.5866 C   0  0  0  0  0  0  0  0  0  0  0  0
   12.7044   15.5804   18.3676 N   0  0  0  0  0  0  0  0  0  0  0  0
   11.4234   15.9501   18.1050 C   0  0  0  0  0  0  0  0  0  0  0  0
   11.1401   16.5270   17.0730 O   0  0  0  0  0  0  0  0  0  0  0  0
   10.4367   15.5504   19.2082 C   0  0  1  0  0  0  0  0  0  0  0  0
   10.7089   14.0707   19.6584 C   0  0  0  0  0  0  0  0  0  0  0  0
   11.0019   15.9530   20.6067 C   0  0  0  0  0  0  0  0  0  0  0  0
   10.7439   12.5328   22.7902 N   0  0  0  0  0  0  0  0  0  0  0  0
    9.8162   11.9371   23.6449 C   0  0  0  0  0  0  0  0  0  0  0  0
    8.9626   12.6807   24.4281 C   0  0  0  0  0  0  0  0  0  0  0  0
    7.9825   12.0374   25.2308 C   0  0  0  0  0  0  0  0  0  0  0  0
    7.8718   10.6646   25.2221 C   0  0  0  0  0  0  0  0  0  0  0  0
    8.7499    9.8807   24.4264 C   0  0  0  0  0  0  0  0  0  0  0  0
    8.5506    8.5258   24.4442 N   0  0  0  0  0  0  0  0  0  0  0  0
    9.3293    7.7955   23.7144 C   0  0  0  0  0  0  0  0  0  0  0  0
    8.9328    6.0993   23.5621 Cl  0  0  0  0  0  0  0  0  0  0  0  0
   10.4617    8.2736   22.9976 C   0  0  0  0  0  0  0  0  0  0  0  0
   10.6677    9.6272   22.9581 C   0  0  0  0  0  0  0  0  0  0  0  0
    9.7680   10.5021   23.6477 C   0  0  0  0  0  0  0  0  0  0  0  0
  1  2  2  0
  2  3  1  0
  4  3  1  1
  4  5  1  0
  5  6  1  0
  6  7  1  0
  7  8  2  0
  7  9  1  0
  9 10  1  1
  9 11  1  0
  2 12  1  0
 12 13  1  0
 13 14  2  0
 14 15  1  0
 15 16  2  0
 16 17  1  0
 17 18  2  0
 18 19  1  0
 19 20  1  0
 19 21  2  0
 21 22  1  0
 22 23  2  0
 10  4  1  0
 23 13  1  0
 11  4  1  0
 23 17  1  0
M  END
>  <ref_pdb>  (131) 
x0554_0A

>  <ref_mols>  (131) 
x0554_0A,x0566_0A

>  <original SMILES>  (131) 
O=C(C[C@]12CNC(=O)[C@H](C1)C2)Nc1cccc2nc(Cl)ccc12

>  <IC50 (nM)>  (131) 
1031.2880846394044

>  <CNNaffinity>  (131) 
5.98662

>  <rationale>  (131) 
-1

$$$$
PV_006856697831
     RDKit          3D

 26 29  0  0  0  0  0  0  0  0999 V2000
   10.9448   14.2980   23.7073 O   0  0  0  0  0  0  0  0  0  0  0  0
   11.2058   13.5543   22.7823 C   0  0  0  0  0  0  0  0  0  0  0  0
   10.5800   12.3495   22.6018 N   0  0  0  0  0  0  0  0  0  0  0  0
    9.7039   11.7431   23.5189 C   0  0  0  0  0  0  0  0  0  0  0  0
    8.8442   12.5015   24.2872 C   0  0  0  0  0  0  0  0  0  0  0  0
    7.9220   11.8853   25.1719 C   0  0  0  0  0  0  0  0  0  0  0  0
    7.8635   10.5152   25.2537 C   0  0  0  0  0  0  0  0  0  0  0  0
    8.7270    9.7165   24.4584 C   0  0  0  0  0  0  0  0  0  0  0  0
    8.5411    8.3661   24.5470 N   0  0  0  0  0  0  0  0  0  0  0  0
    9.2833    7.6063   23.8138 C   0  0  0  0  0  0  0  0  0  0  0  0
    8.8476    5.9130   23.7419 Cl  0  0  0  0  0  0  0  0  0  0  0  0
   10.4045    8.0565   23.0603 C   0  0  0  0  0  0  0  0  0  0  0  0
   10.6090    9.4100   22.9549 C   0  0  0  0  0  0  0  0  0  0  0  0
    9.7081   10.3115   23.6102 C   0  0  0  0  0  0  0  0  0  0  0  0
   12.3201   13.8979   21.7112 C   0  0  2  0  0  0  0  0  0  0  0  0
   13.1274   15.1124   22.1902 C   0  0  0  0  0  0  0  0  0  0  0  0
   12.1432   16.5183   21.5908 S   0  0  0  0  0  0  0  0  0  0  0  0
   11.5961   15.5007   20.2455 C   0  0  0  0  0  0  0  0  0  0  0  0
   10.9978   16.0964   19.0161 C   0  0  0  0  0  0  0  0  0  0  0  0
   10.2393   17.2147   19.0783 N   0  0  0  0  0  0  0  0  0  0  0  0
    9.7105   17.6899   17.9464 C   0  0  0  0  0  0  0  0  0  0  0  0
    9.9159   17.0769   16.6985 C   0  0  0  0  0  0  0  0  0  0  0  0
   10.7441   15.9609   16.6082 C   0  0  0  0  0  0  0  0  0  0  0  0
   11.2868   15.4293   17.7879 C   0  0  0  0  0  0  0  0  0  0  0  0
   12.0568   14.3325   17.6815 O   0  0  0  0  0  0  0  0  0  0  0  0
   11.8368   14.2326   20.3704 N   0  0  0  0  0  0  0  0  0  0  0  0
  1  2  2  0
  2  3  1  0
  3  4  1  0
  4  5  2  0
  5  6  1  0
  6  7  2  0
  7  8  1  0
  8  9  2  0
  9 10  1  0
 10 11  1  0
 10 12  2  0
 12 13  1  0
 13 14  2  0
 15  2  1  1
 15 16  1  0
 16 17  1  0
 17 18  1  0
 18 19  1  0
 19 20  2  0
 20 21  1  0
 21 22  2  0
 22 23  1  0
 23 24  2  0
 24 25  1  0
 18 26  2  0
 14  4  1  0
 26 15  1  0
 14  8  1  0
 24 19  1  0
M  END
>  <ref_pdb>  (132) 
x0554_0A

>  <ref_mols>  (132) 
x0554_0A,x0566_0A

>  <original SMILES>  (132) 
O=C(Nc1cccc2nc(Cl)ccc12)[C@@H]1CSC(c2ncccc2O)=N1

>  <IC50 (nM)>  (132) 
1032.6662893010384

>  <CNNaffinity>  (132) 
5.98604

>  <rationale>  (132) 
-1

$$$$
Z4386725979
     RDKit          3D

 23 25  0  0  0  0  0  0  0  0999 V2000
   13.1682   14.1719   23.2552 C   0  0  0  0  0  0  0  0  0  0  0  0
   12.4635   15.0034   22.1677 C   0  0  0  0  0  0  0  0  0  0  0  0
   13.4500   15.7708   21.2911 C   0  0  0  0  0  0  0  0  0  0  0  0
   11.5599   14.0473   21.3285 C   0  0  1  0  0  0  0  0  0  0  0  0
   10.3410   13.6561   22.1923 C   0  0  0  0  0  0  0  0  0  0  0  0
    9.5008   14.4647   22.5337 O   0  0  0  0  0  0  0  0  0  0  0  0
   10.3462   12.3496   22.6158 N   0  0  0  0  0  0  0  0  0  0  0  0
    9.5071   11.7326   23.5574 C   0  0  0  0  0  0  0  0  0  0  0  0
    8.6276   12.4587   24.3386 C   0  0  0  0  0  0  0  0  0  0  0  0
    7.7769   11.8093   25.2709 C   0  0  0  0  0  0  0  0  0  0  0  0
    7.7988   10.4408   25.3904 C   0  0  0  0  0  0  0  0  0  0  0  0
    8.6696    9.6684   24.5778 C   0  0  0  0  0  0  0  0  0  0  0  0
    8.5372    8.3091   24.6801 N   0  0  0  0  0  0  0  0  0  0  0  0
    9.2639    7.5816   23.8989 C   0  0  0  0  0  0  0  0  0  0  0  0
    8.8571    5.8834   23.7866 Cl  0  0  0  0  0  0  0  0  0  0  0  0
   10.3423    8.0698   23.1073 C   0  0  0  0  0  0  0  0  0  0  0  0
   10.5020    9.4282   23.0056 C   0  0  0  0  0  0  0  0  0  0  0  0
    9.5928   10.3003   23.6899 C   0  0  0  0  0  0  0  0  0  0  0  0
   11.1995   14.5662   19.9963 N   0  0  0  0  0  0  0  0  0  0  0  0
   11.7850   14.2871   18.8127 C   0  0  0  0  0  0  0  0  0  0  0  0
   11.2760   15.0593   17.8850 N   0  0  0  0  0  0  0  0  0  0  0  0
   10.3636   15.8265   18.5222 N   0  0  0  0  0  0  0  0  0  0  0  0
   10.3138   15.5497   19.7771 N   0  0  0  0  0  0  0  0  0  0  0  0
  1  2  1  0
  2  3  1  0
  4  2  1  1
  4  5  1  0
  5  6  2  0
  5  7  1  0
  7  8  1  0
  8  9  2  0
  9 10  1  0
 10 11  2  0
 11 12  1  0
 12 13  2  0
 13 14  1  0
 14 15  1  0
 14 16  2  0
 16 17  1  0
 17 18  2  0
  4 19  1  0
 19 20  1  0
 20 21  2  0
 21 22  1  0
 22 23  2  0
 18  8  1  0
 23 19  1  0
 18 12  1  0
M  END
>  <ref_pdb>  (133) 
x0554_0A

>  <ref_mols>  (133) 
x0554_0A,x0566_0A

>  <original SMILES>  (133) 
CC(C)[C@@H](C(=O)Nc1cccc2nc(Cl)ccc12)n1cnnn1

>  <IC50 (nM)>  (133) 
1033.7130523505843

>  <CNNaffinity>  (133) 
5.9856

>  <rationale>  (133) 
-1

$$$$
PV_006786867731
     RDKit          3D

 25 28  0  0  0  0  0  0  0  0999 V2000
    9.8567   15.1008   24.1198 O   0  0  0  0  0  0  0  0  0  0  0  0
   10.2591   14.3091   23.2918 C   0  0  0  0  0  0  0  0  0  0  0  0
    9.7500   13.0307   23.1433 N   0  0  0  0  0  0  0  0  0  0  0  0
    9.0594   12.2457   24.0586 C   0  0  0  0  0  0  0  0  0  0  0  0
    8.2480   12.9028   25.0739 C   0  0  0  0  0  0  0  0  0  0  0  0
    7.3378   12.0092   25.8546 C   0  0  0  0  0  0  0  0  0  0  0  0
    7.4391   10.6612   25.7502 C   0  0  0  0  0  0  0  0  0  0  0  0
    8.3691   10.0437   24.8511 C   0  0  0  0  0  0  0  0  0  0  0  0
    8.3860    8.6822   24.8709 N   0  0  0  0  0  0  0  0  0  0  0  0
    9.0358    8.0675   23.9327 C   0  0  0  0  0  0  0  0  0  0  0  0
    8.7991    6.3420   23.7841 Cl  0  0  0  0  0  0  0  0  0  0  0  0
    9.8433    8.7103   22.9575 C   0  0  0  0  0  0  0  0  0  0  0  0
    9.9139   10.0809   22.9815 C   0  0  0  0  0  0  0  0  0  0  0  0
    9.1556   10.8348   23.9516 C   0  0  0  0  0  0  0  0  0  0  0  0
   11.5134   14.7011   22.3461 C   0  0  1  0  0  0  0  0  0  0  0  0
   12.7090   13.9493   22.6868 C   0  0  0  0  0  0  0  0  0  0  0  0
   12.8670   12.8608   21.7580 C   0  0  0  0  0  0  0  0  0  0  0  0
   12.5144   13.5896   20.4156 C   0  0  0  0  0  0  0  0  0  0  0  0
   11.3989   14.4250   20.8575 N   0  0  0  0  0  0  0  0  0  0  0  0
   10.7736   15.2385   19.9670 C   0  0  0  0  0  0  0  0  0  0  0  0
   10.9127   14.9216   18.6724 N   0  0  0  0  0  0  0  0  0  0  0  0
   10.2583   15.6821   17.8132 C   0  0  0  0  0  0  0  0  0  0  0  0
    9.4768   16.7613   18.2006 C   0  0  0  0  0  0  0  0  0  0  0  0
    9.4176   16.9943   19.5692 C   0  0  0  0  0  0  0  0  0  0  0  0
   10.0554   16.2536   20.4643 N   0  0  0  0  0  0  0  0  0  0  0  0
  1  2  2  0
  2  3  1  0
  3  4  1  0
  4  5  2  0
  5  6  1  0
  6  7  2  0
  7  8  1  0
  8  9  2  0
  9 10  1  0
 10 11  1  0
 10 12  2  0
 12 13  1  0
 13 14  2  0
 15  2  1  1
 15 16  1  0
 16 17  1  0
 17 18  1  0
 18 19  1  0
 19 20  1  0
 20 21  2  0
 21 22  1  0
 22 23  2  0
 23 24  1  0
 24 25  2  0
 14  4  1  0
 19 15  1  0
 25 20  1  0
 14  8  1  0
M  END
>  <ref_pdb>  (134) 
x0554_0A

>  <ref_mols>  (134) 
x0554_0A,x0566_0A

>  <original SMILES>  (134) 
O=C(Nc1cccc2nc(Cl)ccc12)[C@H]1CCCN1c1ncccn1

>  <IC50 (nM)>  (134) 
1034.0463357837095

>  <CNNaffinity>  (134) 
5.98546

>  <rationale>  (134) 
-1

$$$$
PV_006727672170
     RDKit          3D

 24 26  0  0  0  0  0  0  0  0999 V2000
   10.6818   15.8725   17.6096 C   0  0  0  0  0  0  0  0  0  0  0  0
   11.3953   15.1720   18.6619 N   0  0  0  0  0  0  0  0  0  0  0  0
   12.1114   14.1042   18.3092 N   0  0  0  0  0  0  0  0  0  0  0  0
   12.5776   13.5969   19.4364 C   0  0  0  0  0  0  0  0  0  0  0  0
   12.1686   14.3457   20.5560 C   0  0  0  0  0  0  0  0  0  0  0  0
   12.4446   14.1465   22.0267 C   0  0  0  0  0  0  0  0  0  0  0  0
   11.1923   13.9225   22.8802 C   0  0  0  0  0  0  0  0  0  0  0  0
   10.7167   14.7774   23.5973 O   0  0  0  0  0  0  0  0  0  0  0  0
   10.6893   12.6475   22.7828 N   0  0  0  0  0  0  0  0  0  0  0  0
    9.7817   11.9997   23.6315 C   0  0  0  0  0  0  0  0  0  0  0  0
    8.9181   12.7058   24.4408 C   0  0  0  0  0  0  0  0  0  0  0  0
    7.9619   12.0346   25.2492 C   0  0  0  0  0  0  0  0  0  0  0  0
    7.8855   10.6623   25.2249 C   0  0  0  0  0  0  0  0  0  0  0  0
    8.7678    9.9116   24.4026 C   0  0  0  0  0  0  0  0  0  0  0  0
    8.5798    8.5561   24.4006 N   0  0  0  0  0  0  0  0  0  0  0  0
    9.3695    7.8394   23.6704 C   0  0  0  0  0  0  0  0  0  0  0  0
    8.9807    6.1433   23.5023 Cl  0  0  0  0  0  0  0  0  0  0  0  0
   10.5030    8.3364   22.9681 C   0  0  0  0  0  0  0  0  0  0  0  0
   10.6878    9.6956   22.9366 C   0  0  0  0  0  0  0  0  0  0  0  0
    9.7722   10.5591   23.6233 C   0  0  0  0  0  0  0  0  0  0  0  0
   11.4235   15.3754   20.0082 C   0  0  0  0  0  0  0  0  0  0  0  0
   10.8326   16.5827   20.6666 C   0  0  0  0  0  0  0  0  0  0  0  0
   11.6102   16.9311   21.7321 F   0  0  0  0  0  0  0  0  0  0  0  0
    9.5799   16.3397   21.1396 F   0  0  0  0  0  0  0  0  0  0  0  0
  1  2  1  0
  2  3  1  0
  3  4  2  0
  4  5  1  0
  5  6  1  0
  6  7  1  0
  7  8  2  0
  7  9  1  0
  9 10  1  0
 10 11  2  0
 11 12  1  0
 12 13  2  0
 13 14  1  0
 14 15  2  0
 15 16  1  0
 16 17  1  0
 16 18  2  0
 18 19  1  0
 19 20  2  0
  5 21  2  0
 21 22  1  0
 22 23  1  0
 22 24  1  0
 21  2  1  0
 20 10  1  0
 20 14  1  0
M  END
>  <ref_pdb>  (135) 
x0554_0A

>  <ref_mols>  (135) 
x0554_0A,x0566_0A

>  <original SMILES>  (135) 
Cn1ncc(CC(=O)Nc2cccc3nc(Cl)ccc23)c1C(F)F

>  <IC50 (nM)>  (135) 
1036.7403461014708

>  <CNNaffinity>  (135) 
5.98433

>  <rationale>  (135) 
-1

$$$$
PV_006918073425
     RDKit          3D

 24 27  0  0  0  0  0  0  0  0999 V2000
   10.7022   14.8492   23.4296 O   0  0  0  0  0  0  0  0  0  0  0  0
   11.2077   13.9766   22.7561 C   0  0  0  0  0  0  0  0  0  0  0  0
   12.4357   14.2823   21.9093 C   0  0  0  0  0  0  0  0  0  0  0  0
   12.0525   14.7063   20.5744 N   0  0  0  0  0  0  0  0  0  0  0  0
   12.2434   14.0512   19.4081 C   0  0  0  0  0  0  0  0  0  0  0  0
   11.7034   14.8566   18.4157 C   0  0  0  0  0  0  0  0  0  0  0  0
   11.6248   14.6921   17.0601 N   0  0  0  0  0  0  0  0  0  0  0  0
   11.0036   15.6581   16.4030 C   0  0  0  0  0  0  0  0  0  0  0  0
   10.4187   16.8190   17.0210 C   0  0  0  0  0  0  0  0  0  0  0  0
   10.5185   17.0025   18.3875 C   0  0  0  0  0  0  0  0  0  0  0  0
   11.1983   15.9918   19.1403 C   0  0  0  0  0  0  0  0  0  0  0  0
   11.4310   15.8763   20.4571 N   0  0  0  0  0  0  0  0  0  0  0  0
   10.7479   12.6863   22.6916 N   0  0  0  0  0  0  0  0  0  0  0  0
    9.8374   12.0421   23.5523 C   0  0  0  0  0  0  0  0  0  0  0  0
    8.9834   12.7631   24.3594 C   0  0  0  0  0  0  0  0  0  0  0  0
    8.0245   12.1099   25.1783 C   0  0  0  0  0  0  0  0  0  0  0  0
    7.9263   10.7393   25.1640 C   0  0  0  0  0  0  0  0  0  0  0  0
    8.7966    9.9700   24.3500 C   0  0  0  0  0  0  0  0  0  0  0  0
    8.5876    8.6176   24.3723 N   0  0  0  0  0  0  0  0  0  0  0  0
    9.3751    7.8801   23.6598 C   0  0  0  0  0  0  0  0  0  0  0  0
    8.9737    6.1842   23.5202 Cl  0  0  0  0  0  0  0  0  0  0  0  0
   10.5131    8.3573   22.9528 C   0  0  0  0  0  0  0  0  0  0  0  0
   10.7181    9.7137   22.8963 C   0  0  0  0  0  0  0  0  0  0  0  0
    9.8106   10.5994   23.5643 C   0  0  0  0  0  0  0  0  0  0  0  0
  1  2  2  0
  2  3  1  0
  3  4  1  0
  4  5  1  0
  5  6  2  0
  6  7  1  0
  7  8  2  0
  8  9  1  0
  9 10  2  0
 10 11  1  0
 11 12  2  0
  2 13  1  0
 13 14  1  0
 14 15  2  0
 15 16  1  0
 16 17  2  0
 17 18  1  0
 18 19  2  0
 19 20  1  0
 20 21  1  0
 20 22  2  0
 22 23  1  0
 23 24  2  0
 12  4  1  0
 24 14  1  0
 11  6  1  0
 24 18  1  0
M  END
>  <ref_pdb>  (136) 
x0554_0A

>  <ref_mols>  (136) 
x0554_0A,x0566_0A

>  <original SMILES>  (136) 
O=C(Cn1cc2ncccc2n1)Nc1cccc2nc(Cl)ccc12

>  <IC50 (nM)>  (136) 
1037.6717655678647

>  <CNNaffinity>  (136) 
5.98394

>  <rationale>  (136) 
-1

$$$$
PV_007054567802
     RDKit          3D

 24 27  0  0  0  0  0  0  0  0999 V2000
   11.0565   15.0427   15.8907 N   0  0  0  0  0  0  0  0  0  0  0  0
   11.1900   15.0247   17.0413 C   0  0  0  0  0  0  0  0  0  0  0  0
   11.3128   15.0879   18.4597 C   0  0  0  0  0  0  0  0  0  0  0  0
   11.7153   14.1339   19.3679 C   0  0  0  0  0  0  0  0  0  0  0  0
   11.6090   14.7014   20.5885 N   0  0  0  0  0  0  0  0  0  0  0  0
   11.8632   14.0699   21.8656 C   0  0  0  0  0  0  0  0  0  0  0  0
   10.6019   13.9165   22.7312 C   0  0  0  0  0  0  0  0  0  0  0  0
   10.0767   14.8420   23.3115 O   0  0  0  0  0  0  0  0  0  0  0  0
   10.1444   12.6206   22.7416 N   0  0  0  0  0  0  0  0  0  0  0  0
    9.3067   12.0004   23.6903 C   0  0  0  0  0  0  0  0  0  0  0  0
    8.4181   12.7656   24.4259 C   0  0  0  0  0  0  0  0  0  0  0  0
    7.5987   12.1583   25.4024 C   0  0  0  0  0  0  0  0  0  0  0  0
    7.6524   10.7970   25.5971 C   0  0  0  0  0  0  0  0  0  0  0  0
    8.5100    9.9908   24.7968 C   0  0  0  0  0  0  0  0  0  0  0  0
    8.3840    8.6368   24.9876 N   0  0  0  0  0  0  0  0  0  0  0  0
    9.0406    7.8549   24.1795 C   0  0  0  0  0  0  0  0  0  0  0  0
    8.6226    6.1446   24.2062 Cl  0  0  0  0  0  0  0  0  0  0  0  0
   10.0117    8.2518   23.2614 C   0  0  0  0  0  0  0  0  0  0  0  0
   10.2755    9.6657   23.0510 C   0  0  0  0  0  0  0  0  0  0  0  0
    9.3809   10.5901   23.8517 C   0  0  0  0  0  0  0  0  0  0  0  0
   13.2136   14.4345   22.6151 C   0  0  0  0  0  0  0  0  0  0  0  0
   12.9275   13.1675   22.0138 C   0  0  0  0  0  0  0  0  0  0  0  0
   11.1603   15.9625   20.5343 N   0  0  0  0  0  0  0  0  0  0  0  0
   10.9916   16.2149   19.2565 C   0  0  0  0  0  0  0  0  0  0  0  0
  1  2  3  0
  2  3  1  0
  3  4  2  0
  4  5  1  0
  5  6  1  0
  6  7  1  0
  7  8  2  0
  7  9  1  0
  9 10  1  0
 10 11  2  0
 11 12  1  0
 12 13  2  0
 13 14  1  0
 14 15  2  0
 15 16  1  0
 16 17  1  0
 16 18  2  0
 18 19  1  0
 19 20  2  0
  6 21  1  0
 21 22  1  0
  5 23  1  0
 23 24  2  0
 24  3  1  0
 22  6  1  0
 20 10  1  0
 20 14  1  0
M  END
>  <ref_pdb>  (137) 
x0554_0A

>  <ref_mols>  (137) 
x0554_0A,x0566_0A

>  <original SMILES>  (137) 
N#Cc1cnn(C2(C(=O)Nc3cccc4nc(Cl)ccc34)CC2)c1

>  <IC50 (nM)>  (137) 
1038.484455008274

>  <CNNaffinity>  (137) 
5.9836

>  <rationale>  (137) 
-1

$$$$
Z5476520270
     RDKit          3D

 22 24  0  0  0  0  0  0  0  0999 V2000
   13.0970   12.2852   19.0426 N   0  0  0  0  0  0  0  0  0  0  0  0
   12.5713   13.2927   19.2703 C   0  0  0  0  0  0  0  0  0  0  0  0
   11.8131   14.4986   19.6567 C   0  0  0  0  0  0  0  0  0  0  0  0
   12.4761   15.2019   20.8581 C   0  0  0  0  0  0  0  0  0  0  0  0
   12.6293   14.3154   22.1060 C   0  0  0  0  0  0  0  0  0  0  0  0
   11.2947   13.9831   22.7537 C   0  0  0  0  0  0  0  0  0  0  0  0
   10.5465   14.8777   23.1110 O   0  0  0  0  0  0  0  0  0  0  0  0
   11.0084   12.6488   22.8745 N   0  0  0  0  0  0  0  0  0  0  0  0
    9.9879   12.0369   23.6173 C   0  0  0  0  0  0  0  0  0  0  0  0
    9.0957   12.7878   24.3590 C   0  0  0  0  0  0  0  0  0  0  0  0
    8.0705   12.1692   25.1189 C   0  0  0  0  0  0  0  0  0  0  0  0
    7.9451   10.8023   25.1195 C   0  0  0  0  0  0  0  0  0  0  0  0
    8.8369   10.0039   24.3561 C   0  0  0  0  0  0  0  0  0  0  0  0
    8.5880    8.6583   24.3817 N   0  0  0  0  0  0  0  0  0  0  0  0
    9.3579    7.8940   23.6800 C   0  0  0  0  0  0  0  0  0  0  0  0
    8.9123    6.2071   23.5657 Cl  0  0  0  0  0  0  0  0  0  0  0  0
   10.5066    8.3332   22.9652 C   0  0  0  0  0  0  0  0  0  0  0  0
   10.7589    9.6817   22.9090 C   0  0  0  0  0  0  0  0  0  0  0  0
    9.8978   10.5967   23.6015 C   0  0  0  0  0  0  0  0  0  0  0  0
   11.4628   15.4337   18.4511 C   0  0  0  0  0  0  0  0  0  0  0  0
    9.9750   15.0202   18.5374 C   0  0  0  0  0  0  0  0  0  0  0  0
   10.2900   14.1708   19.7859 C   0  0  0  0  0  0  0  0  0  0  0  0
  1  2  3  0
  2  3  1  0
  3  4  1  0
  4  5  1  0
  5  6  1  0
  6  7  2  0
  6  8  1  0
  8  9  1  0
  9 10  2  0
 10 11  1  0
 11 12  2  0
 12 13  1  0
 13 14  2  0
 14 15  1  0
 15 16  1  0
 15 17  2  0
 17 18  1  0
 18 19  2  0
  3 20  1  0
 20 21  1  0
 21 22  1  0
 22  3  1  0
 19  9  1  0
 19 13  1  0
M  END
>  <ref_pdb>  (138) 
x0554_0A

>  <ref_mols>  (138) 
x0554_0A,x0566_0A

>  <original SMILES>  (138) 
N#CC1(CCC(=O)Nc2cccc3nc(Cl)ccc23)CCC1

>  <IC50 (nM)>  (138) 
1059.1317811052231

>  <CNNaffinity>  (138) 
5.97505

>  <rationale>  (138) 
-1

$$$$
Z4350656814
     RDKit          3D

 24 26  0  0  0  0  0  0  0  0999 V2000
   12.1320   17.9585   17.4068 C   0  0  0  0  0  0  0  0  0  0  0  0
   12.1595   16.4255   16.6374 N   0  0  0  0  0  0  0  0  0  0  0  0
   12.1597   16.4254   16.6375 C   0  0  0  0  0  0  0  0  0  0  0  0
   10.9820   16.0336   17.6585 C   0  0  0  0  0  0  0  0  0  0  0  0
   11.3449   15.1480   18.8219 C   0  0  0  0  0  0  0  0  0  0  0  0
   11.6122   15.4766   20.0953 C   0  0  0  0  0  0  0  0  0  0  0  0
   12.1019   14.3294   20.6216 N   0  0  0  0  0  0  0  0  0  0  0  0
   12.4424   14.0953   22.0069 C   0  0  0  0  0  0  0  0  0  0  0  0
   11.1727   13.8794   22.8451 C   0  0  0  0  0  0  0  0  0  0  0  0
   10.6661   14.7769   23.4849 O   0  0  0  0  0  0  0  0  0  0  0  0
   10.6860   12.6085   22.7557 N   0  0  0  0  0  0  0  0  0  0  0  0
    9.7881   11.9723   23.6220 C   0  0  0  0  0  0  0  0  0  0  0  0
    8.9265   12.6712   24.4434 C   0  0  0  0  0  0  0  0  0  0  0  0
    7.9907   11.9884   25.2664 C   0  0  0  0  0  0  0  0  0  0  0  0
    7.9013   10.6197   25.2461 C   0  0  0  0  0  0  0  0  0  0  0  0
    8.7736    9.8660   24.4123 C   0  0  0  0  0  0  0  0  0  0  0  0
    8.5920    8.5063   24.3994 N   0  0  0  0  0  0  0  0  0  0  0  0
    9.3930    7.8046   23.6644 C   0  0  0  0  0  0  0  0  0  0  0  0
    9.0072    6.1126   23.4677 Cl  0  0  0  0  0  0  0  0  0  0  0  0
   10.5216    8.3195   22.9654 C   0  0  0  0  0  0  0  0  0  0  0  0
   10.7029    9.6767   22.9499 C   0  0  0  0  0  0  0  0  0  0  0  0
    9.7772   10.5307   23.6320 C   0  0  0  0  0  0  0  0  0  0  0  0
   12.1628   13.3745   19.6945 N   0  0  0  0  0  0  0  0  0  0  0  0
   11.7257   13.8714   18.5949 N   0  0  0  0  0  0  0  0  0  0  0  0
  1  2  1  0
  2  3  1  0
  2  4  1  0
  4  5  1  0
  5  6  2  0
  6  7  1  0
  7  8  1  0
  8  9  1  0
  9 10  2  0
  9 11  1  0
 11 12  1  0
 12 13  2  0
 13 14  1  0
 14 15  2  0
 15 16  1  0
 16 17  2  0
 17 18  1  0
 18 19  1  0
 18 20  2  0
 20 21  1  0
 21 22  2  0
  7 23  1  0
 23 24  2  0
 24  5  1  0
 22 12  1  0
 22 16  1  0
M  END
>  <ref_pdb>  (139) 
x0554_0A

>  <ref_mols>  (139) 
x0554_0A,x0566_0A

>  <original SMILES>  (139) 
CN(C)Cc1cn(CC(=O)Nc2cccc3nc(Cl)ccc23)nn1

>  <IC50 (nM)>  (139) 
1059.6440405655915

>  <CNNaffinity>  (139) 
5.97484

>  <rationale>  (139) 
-1

$$$$
Z3584328850
     RDKit          3D

 23 25  0  0  0  0  0  0  0  0999 V2000
   10.6640   14.8176   23.2994 O   0  0  0  0  0  0  0  0  0  0  0  0
   11.2221   13.9093   22.7082 C   0  0  0  0  0  0  0  0  0  0  0  0
   12.4678   14.1640   21.8615 C   0  0  0  0  0  0  0  0  0  0  0  0
   12.1986   14.7915   20.4604 C   0  0  0  0  0  0  0  0  0  0  0  0
   11.6366   13.7414   19.4823 C   0  0  0  0  0  0  0  0  0  0  0  0
   11.3596   14.2519   18.0626 C   0  0  0  0  0  0  0  0  0  0  0  0
   10.2929   15.6541   17.9828 S   0  0  0  0  0  6  0  0  0  0  0  0
   10.4859   16.2780   16.6823 O   0  0  0  0  0  0  0  0  0  0  0  0
    8.9740   15.2115   18.4197 O   0  0  0  0  0  0  0  0  0  0  0  0
   11.0332   16.6984   19.2114 C   0  0  0  0  0  0  0  0  0  0  0  0
   11.2488   16.0048   20.5644 C   0  0  0  0  0  0  0  0  0  0  0  0
   10.7886   12.6083   22.7398 N   0  0  0  0  0  0  0  0  0  0  0  0
    9.8493   12.0021   23.5896 C   0  0  0  0  0  0  0  0  0  0  0  0
    8.9857   12.7407   24.3735 C   0  0  0  0  0  0  0  0  0  0  0  0
    8.0033   12.1010   25.1783 C   0  0  0  0  0  0  0  0  0  0  0  0
    7.8995   10.7301   25.1862 C   0  0  0  0  0  0  0  0  0  0  0  0
    8.7816    9.9437   24.3977 C   0  0  0  0  0  0  0  0  0  0  0  0
    8.5677    8.5912   24.4260 N   0  0  0  0  0  0  0  0  0  0  0  0
    9.3364    7.8467   23.7022 C   0  0  0  0  0  0  0  0  0  0  0  0
    8.9167    6.1531   23.5729 Cl  0  0  0  0  0  0  0  0  0  0  0  0
   10.4699    8.3128   22.9811 C   0  0  0  0  0  0  0  0  0  0  0  0
   10.6914    9.6664   22.9277 C   0  0  0  0  0  0  0  0  0  0  0  0
    9.8029   10.5598   23.6110 C   0  0  0  0  0  0  0  0  0  0  0  0
  1  2  2  0
  2  3  1  0
  3  4  1  0
  4  5  1  0
  5  6  1  0
  6  7  1  0
  7  8  2  0
  7  9  2  0
  7 10  1  0
 10 11  1  0
  2 12  1  0
 12 13  1  0
 13 14  2  0
 14 15  1  0
 15 16  2  0
 16 17  1  0
 17 18  2  0
 18 19  1  0
 19 20  1  0
 19 21  2  0
 21 22  1  0
 22 23  2  0
 11  4  1  0
 23 13  1  0
 23 17  1  0
M  END
>  <ref_pdb>  (140) 
x0554_0A

>  <ref_mols>  (140) 
x0554_0A,x0566_0A

>  <original SMILES>  (140) 
O=C(CC1CCS(=O)(=O)CC1)Nc1cccc2nc(Cl)ccc12

>  <IC50 (nM)>  (140) 
1060.1321370596747

>  <CNNaffinity>  (140) 
5.97464

>  <rationale>  (140) 
-1

$$$$
PV_006862937921
     RDKit          3D

 26 29  0  0  0  0  0  0  0  0999 V2000
   11.2021   14.2836   24.0300 O   0  0  0  0  0  0  0  0  0  0  0  0
   11.3160   13.6418   23.0043 C   0  0  0  0  0  0  0  0  0  0  0  0
   12.3033   14.0406   21.9255 C   0  0  0  0  0  0  0  0  0  0  0  0
   12.4546   15.5561   21.7615 C   0  0  0  0  0  0  0  0  0  0  0  0
   11.3726   16.2248   21.0465 N   0  0  0  0  0  0  0  0  0  0  0  0
   10.5700   17.0997   21.7055 N   0  0  0  0  0  0  0  0  0  0  0  0
    9.8035   17.6333   20.7838 C   0  0  0  0  0  0  0  0  0  0  0  0
    8.9314   18.5902   21.1476 O   0  0  0  0  0  0  0  0  0  0  0  0
   10.0687   17.1396   19.5022 C   0  0  0  0  0  0  0  0  0  0  0  0
   11.1022   16.2429   19.7176 C   0  0  0  0  0  0  0  0  0  0  0  0
   11.7942   15.4785   18.6257 C   0  0  0  0  0  0  0  0  0  0  0  0
   11.5891   16.1964   17.2747 C   0  0  0  0  0  0  0  0  0  0  0  0
   10.1157   16.5905   17.0661 C   0  0  0  0  0  0  0  0  0  0  0  0
    9.5816   17.5551   18.1386 C   0  0  0  0  0  0  0  0  0  0  0  0
   10.6407   12.4834   22.7583 N   0  0  0  0  0  0  0  0  0  0  0  0
    9.7495   11.8569   23.6374 C   0  0  0  0  0  0  0  0  0  0  0  0
    8.8913   12.6050   24.4145 C   0  0  0  0  0  0  0  0  0  0  0  0
    7.9052   11.9757   25.2174 C   0  0  0  0  0  0  0  0  0  0  0  0
    7.8276   10.6020   25.2494 C   0  0  0  0  0  0  0  0  0  0  0  0
    8.7205    9.8118   24.4769 C   0  0  0  0  0  0  0  0  0  0  0  0
    8.5421    8.4581   24.5472 N   0  0  0  0  0  0  0  0  0  0  0  0
    9.3003    7.7132   23.8130 C   0  0  0  0  0  0  0  0  0  0  0  0
    8.8706    6.0206   23.7062 Cl  0  0  0  0  0  0  0  0  0  0  0  0
   10.4167    8.1812   23.0647 C   0  0  0  0  0  0  0  0  0  0  0  0
   10.6194    9.5362   22.9871 C   0  0  0  0  0  0  0  0  0  0  0  0
    9.7230   10.4228   23.6674 C   0  0  0  0  0  0  0  0  0  0  0  0
  1  2  2  0
  2  3  1  0
  3  4  1  0
  4  5  1  0
  5  6  1  0
  6  7  2  0
  7  8  1  0
  7  9  1  0
  9 10  2  0
 10 11  1  0
 11 12  1  0
 12 13  1  0
 13 14  1  0
  2 15  1  0
 15 16  1  0
 16 17  2  0
 17 18  1  0
 18 19  2  0
 19 20  1  0
 20 21  2  0
 21 22  1  0
 22 23  1  0
 22 24  2  0
 24 25  1  0
 25 26  2  0
 10  5  1  0
 26 16  1  0
 14  9  1  0
 26 20  1  0
M  END
>  <ref_pdb>  (141) 
x0554_0A

>  <ref_mols>  (141) 
x0554_0A,x0566_0A

>  <original SMILES>  (141) 
O=C(CCn1nc(O)c2c1CCCC2)Nc1cccc2nc(Cl)ccc12

>  <IC50 (nM)>  (141) 
1063.4571609841641

>  <CNNaffinity>  (141) 
5.97328

>  <rationale>  (141) 
-1

$$$$
Z3629097851
     RDKit          3D

 24 26  0  0  0  0  0  0  0  0999 V2000
    9.8887   14.4005   18.0936 C   0  0  0  0  0  0  0  0  0  0  0  0
   11.2574   15.0055   18.4014 C   0  0  2  0  0  0  0  0  0  0  0  0
   12.0492   14.2021   19.4360 C   0  0  0  0  0  0  0  0  0  0  0  0
   12.5502   13.1173   19.2674 O   0  0  0  0  0  0  0  0  0  0  0  0
   12.1207   14.9026   20.6250 N   0  0  0  0  0  0  0  0  0  0  0  0
   12.6779   14.3777   21.8926 C   0  0  0  0  0  0  0  0  0  0  0  0
   11.7226   13.8211   22.9796 C   0  0  0  0  0  0  0  0  0  0  0  0
   11.6189   14.3595   24.0619 O   0  0  0  0  0  0  0  0  0  0  0  0
   11.0538   12.6668   22.6420 N   0  0  0  0  0  0  0  0  0  0  0  0
   10.0593   12.0634   23.4442 C   0  0  0  0  0  0  0  0  0  0  0  0
    9.2136   12.8597   24.1899 C   0  0  0  0  0  0  0  0  0  0  0  0
    8.1741   12.3044   24.9777 C   0  0  0  0  0  0  0  0  0  0  0  0
    7.9882   10.9441   25.0071 C   0  0  0  0  0  0  0  0  0  0  0  0
    8.8425   10.0948   24.2553 C   0  0  0  0  0  0  0  0  0  0  0  0
    8.5618    8.7582   24.3237 N   0  0  0  0  0  0  0  0  0  0  0  0
    9.3371    7.9483   23.6785 C   0  0  0  0  0  0  0  0  0  0  0  0
    8.8728    6.2626   23.6482 Cl  0  0  0  0  0  0  0  0  0  0  0  0
   10.5098    8.3360   22.9727 C   0  0  0  0  0  0  0  0  0  0  0  0
   10.7861    9.6762   22.8600 C   0  0  0  0  0  0  0  0  0  0  0  0
    9.9219   10.6327   23.4822 C   0  0  0  0  0  0  0  0  0  0  0  0
   11.5417   16.1519   20.4974 C   0  0  0  0  0  0  0  0  0  0  0  0
   11.3921   16.9136   21.4232 O   0  0  0  0  0  0  0  0  0  0  0  0
   11.1896   16.4096   19.0299 C   0  0  2  0  0  0  0  0  0  0  0  0
    9.9274   17.2617   18.8508 C   0  0  0  0  0  0  0  0  0  0  0  0
  2  1  1  1
  2  3  1  0
  3  4  2  0
  3  5  1  0
  5  6  1  0
  6  7  1  0
  7  8  2  0
  7  9  1  0
  9 10  1  0
 10 11  2  0
 11 12  1  0
 12 13  2  0
 13 14  1  0
 14 15  2  0
 15 16  1  0
 16 17  1  0
 16 18  2  0
 18 19  1  0
 19 20  2  0
  5 21  1  0
 21 22  2  0
 21 23  1  0
 23 24  1  1
 23  2  1  0
 20 10  1  0
 20 14  1  0
M  END
>  <ref_pdb>  (142) 
x0554_0A

>  <ref_mols>  (142) 
x0554_0A,x0566_0A

>  <original SMILES>  (142) 
C[C@@H]1C(=O)N(CC(=O)Nc2cccc3nc(Cl)ccc23)C(=O)[C@@H]1C

>  <IC50 (nM)>  (142) 
1065.8105136290608

>  <CNNaffinity>  (142) 
5.97232

>  <rationale>  (142) 
-1

$$$$
PV_002255653815
     RDKit          3D

 26 28  0  0  0  0  0  0  0  0999 V2000
   10.5354   14.8841   23.0267 O   0  0  0  0  0  0  0  0  0  0  0  0
   11.1596   13.9387   22.5887 C   0  0  0  0  0  0  0  0  0  0  0  0
   12.5025   14.0953   21.9141 C   0  0  0  0  0  0  0  0  0  0  0  0
   12.3484   14.2399   20.4169 C   0  0  0  0  0  0  0  0  0  0  0  0
   11.3209   15.2409   20.2066 N   0  0  0  0  0  0  0  0  0  0  0  0
   11.3476   16.0543   18.7709 S   0  0  0  0  0  6  0  0  0  0  0  0
   12.6616   15.9597   18.1692 O   0  0  0  0  0  0  0  0  0  0  0  0
   10.7668   17.3198   19.1805 O   0  0  0  0  0  0  0  0  0  0  0  0
   10.2274   15.1145   17.8086 C   0  0  0  0  0  0  0  0  0  0  0  0
    8.9035   15.0247   18.2446 C   0  0  0  0  0  0  0  0  0  0  0  0
    7.9898   14.3178   17.4648 C   0  0  0  0  0  0  0  0  0  0  0  0
    8.4221   13.6079   16.3402 C   0  0  0  0  0  0  0  0  0  0  0  0
    9.7644   13.6589   15.9532 C   0  0  0  0  0  0  0  0  0  0  0  0
   10.6785   14.4293   16.6717 C   0  0  0  0  0  0  0  0  0  0  0  0
   10.7389   12.6374   22.6542 N   0  0  0  0  0  0  0  0  0  0  0  0
    9.8237   12.0390   23.5274 C   0  0  0  0  0  0  0  0  0  0  0  0
    8.9777   12.7919   24.3144 C   0  0  0  0  0  0  0  0  0  0  0  0
    8.0150   12.1648   25.1496 C   0  0  0  0  0  0  0  0  0  0  0  0
    7.9132   10.7939   25.1753 C   0  0  0  0  0  0  0  0  0  0  0  0
    8.7766    9.9965   24.3779 C   0  0  0  0  0  0  0  0  0  0  0  0
    8.5553    8.6458   24.4241 N   0  0  0  0  0  0  0  0  0  0  0  0
    9.3224    7.8895   23.7096 C   0  0  0  0  0  0  0  0  0  0  0  0
    8.8906    6.1993   23.5903 Cl  0  0  0  0  0  0  0  0  0  0  0  0
   10.4583    8.3401   22.9803 C   0  0  0  0  0  0  0  0  0  0  0  0
   10.6820    9.6918   22.9065 C   0  0  0  0  0  0  0  0  0  0  0  0
    9.7905   10.5981   23.5734 C   0  0  0  0  0  0  0  0  0  0  0  0
  1  2  2  0
  2  3  1  0
  3  4  1  0
  4  5  1  0
  5  6  1  0
  6  7  2  0
  6  8  2  0
  6  9  1  0
  9 10  2  0
 10 11  1  0
 11 12  2  0
 12 13  1  0
 13 14  2  0
  2 15  1  0
 15 16  1  0
 16 17  2  0
 17 18  1  0
 18 19  2  0
 19 20  1  0
 20 21  2  0
 21 22  1  0
 22 23  1  0
 22 24  2  0
 24 25  1  0
 25 26  2  0
 14  9  1  0
 26 16  1  0
 26 20  1  0
M  END
>  <ref_pdb>  (143) 
x0554_0A

>  <ref_mols>  (143) 
x0554_0A,x0566_0A

>  <original SMILES>  (143) 
O=C(CCNS(=O)(=O)c1ccccc1)Nc1cccc2nc(Cl)ccc12

>  <IC50 (nM)>  (143) 
1067.6772772823717

>  <CNNaffinity>  (143) 
5.97156

>  <rationale>  (143) 
-1

$$$$
Z3584328879
     RDKit          3D

 24 26  0  0  0  0  0  0  0  0999 V2000
    9.8569   14.4281   18.0958 C   0  0  0  0  0  0  0  0  0  0  0  0
   11.2263   15.0308   18.3997 C   0  0  2  0  0  0  0  0  0  0  0  0
   12.0231   14.2264   19.4294 C   0  0  0  0  0  0  0  0  0  0  0  0
   12.5302   13.1427   19.2610 O   0  0  0  0  0  0  0  0  0  0  0  0
   12.0909   14.9228   20.6220 N   0  0  0  0  0  0  0  0  0  0  0  0
   12.6644   14.3967   21.8817 C   0  0  0  0  0  0  0  0  0  0  0  0
   11.7248   13.8280   22.9793 C   0  0  0  0  0  0  0  0  0  0  0  0
   11.6483   14.3534   24.0702 O   0  0  0  0  0  0  0  0  0  0  0  0
   11.0571   12.6711   22.6469 N   0  0  0  0  0  0  0  0  0  0  0  0
   10.0613   12.0688   23.4479 C   0  0  0  0  0  0  0  0  0  0  0  0
    9.2168   12.8657   24.1932 C   0  0  0  0  0  0  0  0  0  0  0  0
    8.1734   12.3102   24.9754 C   0  0  0  0  0  0  0  0  0  0  0  0
    7.9860   10.9502   25.0011 C   0  0  0  0  0  0  0  0  0  0  0  0
    8.8410   10.1007   24.2515 C   0  0  0  0  0  0  0  0  0  0  0  0
    8.5624    8.7635   24.3248 N   0  0  0  0  0  0  0  0  0  0  0  0
    9.3374    7.9552   23.6797 C   0  0  0  0  0  0  0  0  0  0  0  0
    8.8706    6.2709   23.6437 Cl  0  0  0  0  0  0  0  0  0  0  0  0
   10.5085    8.3435   22.9700 C   0  0  0  0  0  0  0  0  0  0  0  0
   10.7847    9.6844   22.8564 C   0  0  0  0  0  0  0  0  0  0  0  0
    9.9206   10.6389   23.4797 C   0  0  0  0  0  0  0  0  0  0  0  0
   11.5188   16.1759   20.4988 C   0  0  0  0  0  0  0  0  0  0  0  0
   11.3718   16.9386   21.4257 O   0  0  0  0  0  0  0  0  0  0  0  0
   11.1616   16.4322   19.0340 C   0  0  2  0  0  0  0  0  0  0  0  0
    9.9091   17.3005   18.8621 C   0  0  0  0  0  0  0  0  0  0  0  0
  2  1  1  1
  2  3  1  0
  3  4  2  0
  3  5  1  0
  5  6  1  0
  6  7  1  0
  7  8  2  0
  7  9  1  0
  9 10  1  0
 10 11  2  0
 11 12  1  0
 12 13  2  0
 13 14  1  0
 14 15  2  0
 15 16  1  0
 16 17  1  0
 16 18  2  0
 18 19  1  0
 19 20  2  0
  5 21  1  0
 21 22  2  0
 21 23  1  0
 23 24  1  1
 23  2  1  0
 20 10  1  0
 20 14  1  0
M  END
>  <ref_pdb>  (144) 
x0554_0A

>  <ref_mols>  (144) 
x0554_0A,x0566_0A

>  <original SMILES>  (144) 
C[C@@H]1C(=O)N(CC(=O)Nc2cccc3nc(Cl)ccc23)C(=O)[C@@H]1C

>  <IC50 (nM)>  (144) 
1072.4819705214131

>  <CNNaffinity>  (144) 
5.96961

>  <rationale>  (144) 
-1

$$$$
Z3384354457
     RDKit          3D

 23 26  0  0  0  0  0  0  0  0999 V2000
   10.7165   14.7729   23.3388 O   0  0  0  0  0  0  0  0  0  0  0  0
   11.2284   13.8748   22.6927 C   0  0  0  0  0  0  0  0  0  0  0  0
   12.3836   14.1372   21.7314 C   0  0  0  0  0  0  0  0  0  0  0  0
   11.9770   14.8656   20.4213 C   0  0  2  0  0  0  0  0  0  0  0  0
   11.2769   16.2006   20.7547 C   0  0  0  0  0  0  0  0  0  0  0  0
   10.6625   16.8853   19.5287 C   0  0  0  0  0  0  0  0  0  0  0  0
    9.7457   16.0117   18.7975 N   0  0  0  0  0  0  0  0  0  0  0  0
   10.4391   14.8082   18.3801 C   0  0  0  0  0  0  0  0  0  0  0  0
   11.1109   14.9155   17.0481 C   0  0  0  0  0  0  0  0  0  0  0  0
    9.8332   14.1272   17.2028 C   0  0  0  0  0  0  0  0  0  0  0  0
   11.0757   14.0046   19.5083 C   0  0  0  0  0  0  0  0  0  0  0  0
   10.8197   12.5741   22.7774 N   0  0  0  0  0  0  0  0  0  0  0  0
    9.8750   11.9897   23.6300 C   0  0  0  0  0  0  0  0  0  0  0  0
    9.0080   12.7416   24.3979 C   0  0  0  0  0  0  0  0  0  0  0  0
    8.0047   12.1141   25.1838 C   0  0  0  0  0  0  0  0  0  0  0  0
    7.8903   10.7447   25.1990 C   0  0  0  0  0  0  0  0  0  0  0  0
    8.7798    9.9486   24.4275 C   0  0  0  0  0  0  0  0  0  0  0  0
    8.5552    8.5987   24.4626 N   0  0  0  0  0  0  0  0  0  0  0  0
    9.3127    7.8434   23.7371 C   0  0  0  0  0  0  0  0  0  0  0  0
    8.8724    6.1556   23.6101 Cl  0  0  0  0  0  0  0  0  0  0  0  0
   10.4461    8.2937   23.0043 C   0  0  0  0  0  0  0  0  0  0  0  0
   10.6903    9.6428   22.9608 C   0  0  0  0  0  0  0  0  0  0  0  0
    9.8170   10.5487   23.6503 C   0  0  0  0  0  0  0  0  0  0  0  0
  1  2  2  0
  2  3  1  0
  4  3  1  1
  4  5  1  0
  5  6  1  0
  6  7  1  0
  7  8  1  0
  8  9  1  0
  9 10  1  0
  8 11  1  0
  2 12  1  0
 12 13  1  0
 13 14  2  0
 14 15  1  0
 15 16  2  0
 16 17  1  0
 17 18  2  0
 18 19  1  0
 19 20  1  0
 19 21  2  0
 21 22  1  0
 22 23  2  0
 11  4  1  0
 23 13  1  0
 10  8  1  0
 23 17  1  0
M  END
>  <ref_pdb>  (145) 
x0554_0A

>  <ref_mols>  (145) 
x0554_0A,x0566_0A

>  <original SMILES>  (145) 
O=C(C[C@@H]1CCNC2(CC2)C1)Nc1cccc2nc(Cl)ccc12

>  <IC50 (nM)>  (145) 
1076.9610583443416

>  <CNNaffinity>  (145) 
5.9678

>  <rationale>  (145) 
-1

$$$$
PV_002327076368
     RDKit          3D

 25 28  0  0  0  0  0  0  0  0999 V2000
   13.2181   11.9642   21.3283 O   0  0  0  0  0  0  0  0  0  0  0  0
   12.9681   12.9110   22.0385 C   0  0  0  0  0  0  0  0  0  0  0  0
   13.3741   12.9544   23.3404 N   0  0  0  0  0  0  0  0  0  0  0  0
   13.4740   14.2953   23.8717 C   0  0  0  0  0  0  0  0  0  0  0  0
   12.9252   15.1587   22.7253 C   0  0  0  0  0  0  0  0  0  0  0  0
   12.1375   14.1712   21.8155 C   0  0  2  0  0  0  0  0  0  0  0  0
   10.7994   13.8329   22.5244 C   0  0  0  0  0  0  0  0  0  0  0  0
   10.1985   14.7034   23.1320 O   0  0  0  0  0  0  0  0  0  0  0  0
   10.3410   12.5404   22.4760 N   0  0  0  0  0  0  0  0  0  0  0  0
    9.5711   11.8982   23.4697 C   0  0  0  0  0  0  0  0  0  0  0  0
    8.7279   12.5907   24.3191 C   0  0  0  0  0  0  0  0  0  0  0  0
    7.8779   11.9033   25.2274 C   0  0  0  0  0  0  0  0  0  0  0  0
    7.8676   10.5304   25.2581 C   0  0  0  0  0  0  0  0  0  0  0  0
    8.7383    9.7958   24.4096 C   0  0  0  0  0  0  0  0  0  0  0  0
    8.5987    8.4353   24.4477 N   0  0  0  0  0  0  0  0  0  0  0  0
    9.3748    7.7303   23.6918 C   0  0  0  0  0  0  0  0  0  0  0  0
    8.9898    6.0303   23.5164 Cl  0  0  0  0  0  0  0  0  0  0  0  0
   10.4841    8.2535   22.9688 C   0  0  0  0  0  0  0  0  0  0  0  0
   10.6311    9.6161   22.8977 C   0  0  0  0  0  0  0  0  0  0  0  0
    9.6749   10.4628   23.5593 C   0  0  0  0  0  0  0  0  0  0  0  0
   12.0331   14.7546   20.3795 C   0  0  0  0  0  0  0  0  0  0  0  0
   11.4843   16.2051   20.3452 C   0  0  0  0  0  0  0  0  0  0  0  0
    9.9495   16.0843   20.3943 C   0  0  0  0  0  0  0  0  0  0  0  0
    9.6526   14.6944   19.7883 C   0  0  0  0  0  0  0  0  0  0  0  0
   11.0285   14.0998   19.4176 C   0  0  0  0  0  0  0  0  0  0  0  0
  1  2  2  0
  2  3  1  0
  3  4  1  0
  4  5  1  0
  5  6  1  0
  6  7  1  0
  7  8  2  0
  7  9  1  0
  9 10  1  0
 10 11  2  0
 11 12  1  0
 12 13  2  0
 13 14  1  0
 14 15  2  0
 15 16  1  0
 16 17  1  0
 16 18  2  0
 18 19  1  0
 19 20  2  0
  6 21  1  6
 21 22  1  0
 22 23  1  0
 23 24  1  0
 24 25  1  0
  6  2  1  0
 20 10  1  0
 25 21  1  0
 20 14  1  0
M  END
>  <ref_pdb>  (146) 
x0554_0A

>  <ref_mols>  (146) 
x0554_0A,x0566_0A

>  <original SMILES>  (146) 
O=C1NCC[C@@]1(C(=O)Nc1cccc2nc(Cl)ccc12)C1CCCC1

>  <IC50 (nM)>  (146) 
1084.8507660692203

>  <CNNaffinity>  (146) 
5.96463

>  <rationale>  (146) 
-1

$$$$
PV_006823507276
     RDKit          3D

 24 26  0  0  0  0  0  0  0  0999 V2000
    9.6287   16.4512   15.9472 C   0  0  0  0  0  0  0  0  0  0  0  0
   10.4412   15.7660   16.9313 N   0  0  0  0  0  0  0  0  0  0  0  0
   10.8910   16.3410   18.0743 C   0  0  0  0  0  0  0  0  0  0  0  0
   10.7329   17.5224   18.3445 O   0  0  0  0  0  0  0  0  0  0  0  0
   11.5657   15.3985   19.0399 C   0  0  0  0  0  0  0  0  0  0  0  0
   11.7848   15.6198   20.3772 C   0  0  0  0  0  0  0  0  0  0  0  0
   12.3334   14.4735   20.8228 N   0  0  0  0  0  0  0  0  0  0  0  0
   12.6601   14.1398   22.1940 C   0  0  0  0  0  0  0  0  0  0  0  0
   11.4030   13.8842   23.0228 C   0  0  0  0  0  0  0  0  0  0  0  0
   10.9888   14.7123   23.8073 O   0  0  0  0  0  0  0  0  0  0  0  0
   10.8145   12.6728   22.7735 N   0  0  0  0  0  0  0  0  0  0  0  0
    9.8534   12.0140   23.5666 C   0  0  0  0  0  0  0  0  0  0  0  0
    8.9693   12.7372   24.3409 C   0  0  0  0  0  0  0  0  0  0  0  0
    7.9876   12.0911   25.1406 C   0  0  0  0  0  0  0  0  0  0  0  0
    7.8919   10.7206   25.1403 C   0  0  0  0  0  0  0  0  0  0  0  0
    8.7799    9.9464   24.3475 C   0  0  0  0  0  0  0  0  0  0  0  0
    8.5761    8.5933   24.3742 N   0  0  0  0  0  0  0  0  0  0  0  0
    9.3635    7.8545   23.6637 C   0  0  0  0  0  0  0  0  0  0  0  0
    8.9605    6.1572   23.5338 Cl  0  0  0  0  0  0  0  0  0  0  0  0
   10.5014    8.3319   22.9546 C   0  0  0  0  0  0  0  0  0  0  0  0
   10.7097    9.6883   22.8992 C   0  0  0  0  0  0  0  0  0  0  0  0
    9.8065   10.5741   23.5707 C   0  0  0  0  0  0  0  0  0  0  0  0
   12.4513   13.5867   19.8348 N   0  0  0  0  0  0  0  0  0  0  0  0
   12.0002   14.1295   18.7533 N   0  0  0  0  0  0  0  0  0  0  0  0
  1  2  1  0
  2  3  1  0
  3  4  2  0
  3  5  1  0
  5  6  2  0
  6  7  1  0
  7  8  1  0
  8  9  1  0
  9 10  2  0
  9 11  1  0
 11 12  1  0
 12 13  2  0
 13 14  1  0
 14 15  2  0
 15 16  1  0
 16 17  2  0
 17 18  1  0
 18 19  1  0
 18 20  2  0
 20 21  1  0
 21 22  2  0
  7 23  1  0
 23 24  2  0
 24  5  1  0
 22 12  1  0
 22 16  1  0
M  END
>  <ref_pdb>  (147) 
x0554_0A

>  <ref_mols>  (147) 
x0554_0A,x0566_0A

>  <original SMILES>  (147) 
CNC(=O)c1cn(CC(=O)Nc2cccc3nc(Cl)ccc23)nn1

>  <IC50 (nM)>  (147) 
1085.900417243625

>  <CNNaffinity>  (147) 
5.96421

>  <rationale>  (147) 
-1

$$$$
PV_002268052673
     RDKit          3D

 24 26  0  0  0  0  0  0  0  0999 V2000
    9.2073   16.6928   20.1546 C   0  0  0  0  0  0  0  0  0  0  0  0
    9.3914   16.0770   18.7603 C   0  0  0  0  0  0  0  0  0  0  0  0
   10.8005   15.5157   18.4860 C   0  0  0  0  0  0  0  0  0  0  0  0
   11.1361   14.4864   19.5514 C   0  0  0  0  0  0  0  0  0  0  0  0
   10.5703   13.4042   19.5515 O   0  0  0  0  0  0  0  0  0  0  0  0
   11.9722   14.8388   20.5946 N   0  0  0  0  0  0  0  0  0  0  0  0
   12.5462   16.1514   20.7789 C   0  0  0  0  0  0  0  0  0  0  0  0
   13.9391   15.9010   21.8863 S   0  0  0  0  0  0  0  0  0  0  0  0
   13.0696   14.6061   22.7737 C   0  0  0  0  0  0  0  0  0  0  0  0
   12.0720   13.9706   21.7836 C   0  0  1  0  0  0  0  0  0  0  0  0
   10.7369   13.7386   22.5422 C   0  0  0  0  0  0  0  0  0  0  0  0
   10.1809   14.6368   23.1535 O   0  0  0  0  0  0  0  0  0  0  0  0
   10.3090   12.4405   22.5075 N   0  0  0  0  0  0  0  0  0  0  0  0
    9.5184   11.7953   23.4695 C   0  0  0  0  0  0  0  0  0  0  0  0
    8.6852   12.5211   24.2955 C   0  0  0  0  0  0  0  0  0  0  0  0
    7.8418   11.8730   25.2332 C   0  0  0  0  0  0  0  0  0  0  0  0
    7.8368   10.5001   25.3152 C   0  0  0  0  0  0  0  0  0  0  0  0
    8.6838    9.7327   24.4737 C   0  0  0  0  0  0  0  0  0  0  0  0
    8.5519    8.3743   24.5662 N   0  0  0  0  0  0  0  0  0  0  0  0
    9.2998    7.6497   23.8008 C   0  0  0  0  0  0  0  0  0  0  0  0
    8.9009    5.9509   23.6854 Cl  0  0  0  0  0  0  0  0  0  0  0  0
   10.3847    8.1437   23.0206 C   0  0  0  0  0  0  0  0  0  0  0  0
   10.5266    9.5040   22.9061 C   0  0  0  0  0  0  0  0  0  0  0  0
    9.5997   10.3657   23.5794 C   0  0  0  0  0  0  0  0  0  0  0  0
  1  2  1  0
  2  3  1  0
  3  4  1  0
  4  5  2  0
  4  6  1  0
  6  7  1  0
  7  8  1  0
  8  9  1  0
  9 10  1  0
 10 11  1  1
 11 12  2  0
 11 13  1  0
 13 14  1  0
 14 15  2  0
 15 16  1  0
 16 17  2  0
 17 18  1  0
 18 19  2  0
 19 20  1  0
 20 21  1  0
 20 22  2  0
 22 23  1  0
 23 24  2  0
 10  6  1  0
 24 14  1  0
 24 18  1  0
M  END
>  <ref_pdb>  (148) 
x0554_0A

>  <ref_mols>  (148) 
x0554_0A,x0566_0A

>  <original SMILES>  (148) 
CCCC(=O)N1CSC[C@H]1C(=O)Nc1cccc2nc(Cl)ccc12

>  <IC50 (nM)>  (148) 
1086.6758111644253

>  <CNNaffinity>  (148) 
5.9639

>  <rationale>  (148) 
-1

$$$$
PV_007016163177
     RDKit          3D

 28 31  0  0  0  0  0  0  0  0999 V2000
   12.7602   13.7636   25.4330 C   0  0  0  0  0  0  0  0  0  0  0  0
   13.5198   13.3007   24.1989 C   0  0  0  0  0  0  0  0  0  0  0  0
   14.7373   12.6232   24.3234 C   0  0  0  0  0  0  0  0  0  0  0  0
   15.2712   11.7504   23.3471 C   0  0  0  0  0  0  0  0  0  0  0  0
   16.0354   10.6486   24.0935 C   0  0  0  0  0  0  0  0  0  0  0  0
   15.9685    9.3364   23.8691 N   0  0  0  0  0  0  0  0  0  0  0  0
   16.7062    8.8427   24.8375 N   0  0  0  0  0  0  0  0  0  0  0  0
   17.1957    9.7357   25.6711 N   0  0  0  0  0  0  0  0  0  0  0  0
   16.7568   10.8743   25.2455 N   0  0  0  0  0  0  0  0  0  0  0  0
   14.5011   11.6911   22.0273 C   0  0  0  0  0  0  0  0  0  0  0  0
   13.3925   12.5982   21.8434 C   0  0  0  0  0  0  0  0  0  0  0  0
   12.8328   13.0562   20.4735 C   0  0  0  0  0  0  0  0  0  0  0  0
   12.9703   13.4416   22.9154 C   0  0  0  0  0  0  0  0  0  0  0  0
   11.8928   14.5081   22.7351 C   0  0  0  0  0  0  0  0  0  0  0  0
   10.4540   14.0941   23.0070 C   0  0  0  0  0  0  0  0  0  0  0  0
    9.5992   14.9351   23.2012 O   0  0  0  0  0  0  0  0  0  0  0  0
   10.2200   12.7419   22.9848 N   0  0  0  0  0  0  0  0  0  0  0  0
    9.2940   12.0353   23.7579 C   0  0  0  0  0  0  0  0  0  0  0  0
    8.3416   12.6741   24.5239 C   0  0  0  0  0  0  0  0  0  0  0  0
    7.4970   11.9299   25.3895 C   0  0  0  0  0  0  0  0  0  0  0  0
    7.6039   10.5601   25.4479 C   0  0  0  0  0  0  0  0  0  0  0  0
    8.5342    9.8798   24.6145 C   0  0  0  0  0  0  0  0  0  0  0  0
    8.4990    8.5107   24.6627 N   0  0  0  0  0  0  0  0  0  0  0  0
    9.2334    7.8607   23.8211 C   0  0  0  0  0  0  0  0  0  0  0  0
    8.9265    6.1459   23.6334 Cl  0  0  0  0  0  0  0  0  0  0  0  0
   10.2135    8.4505   22.9753 C   0  0  0  0  0  0  0  0  0  0  0  0
   10.2887    9.8189   22.9368 C   0  0  0  0  0  0  0  0  0  0  0  0
    9.4050   10.6034   23.7491 C   0  0  0  0  0  0  0  0  0  0  0  0
  1  2  1  0
  2  3  2  0
  3  4  1  0
  4  5  1  0
  5  6  2  0
  6  7  1  0
  7  8  1  0
  8  9  2  0
  4 10  2  0
 10 11  1  0
 11 12  1  0
 11 13  2  0
 13 14  1  0
 14 15  1  0
 15 16  2  0
 15 17  1  0
 17 18  1  0
 18 19  2  0
 19 20  1  0
 20 21  2  0
 21 22  1  0
 22 23  2  0
 23 24  1  0
 24 25  1  0
 24 26  2  0
 26 27  1  0
 27 28  2  0
 13  2  1  0
 28 18  1  0
  9  5  1  0
 28 22  1  0
M  END
>  <ref_pdb>  (149) 
x0554_0A

>  <ref_mols>  (149) 
x0554_0A,x0566_0A

>  <original SMILES>  (149) 
Cc1cc(-c2nn[nH]n2)cc(C)c1CC(=O)Nc1cccc2nc(Cl)ccc12

>  <IC50 (nM)>  (149) 
1089.9084006697753

>  <CNNaffinity>  (149) 
5.96261

>  <rationale>  (149) 
-1

$$$$
PV_002118153603
     RDKit          3D

 28 31  0  0  0  0  0  0  0  0999 V2000
    9.7545   14.2718   24.1691 O   0  0  0  0  0  0  0  0  0  0  0  0
   10.1759   13.5070   23.3198 C   0  0  0  0  0  0  0  0  0  0  0  0
   11.2869   13.8307   22.3246 C   0  0  0  0  0  0  0  0  0  0  0  0
   11.9024   15.2177   22.5664 C   0  0  2  0  0  0  0  0  0  0  0  0
   10.8291   16.1965   22.4949 N   0  0  0  0  0  0  0  0  0  0  0  0
   10.1987   16.7086   21.3950 C   0  0  0  0  0  0  0  0  0  0  0  0
    9.2877   17.4904   21.6088 O   0  0  0  0  0  0  0  0  0  0  0  0
   10.5630   16.2986   19.9920 C   0  0  0  0  0  0  0  0  0  0  0  0
    9.5538   16.5030   19.0299 C   0  0  0  0  0  0  0  0  0  0  0  0
    9.6817   16.0537   17.7221 C   0  0  0  0  0  0  0  0  0  0  0  0
   10.8795   15.4506   17.3180 C   0  0  0  0  0  0  0  0  0  0  0  0
   11.9270   15.3293   18.2249 C   0  0  0  0  0  0  0  0  0  0  0  0
   11.7858   15.7463   19.5550 C   0  0  0  0  0  0  0  0  0  0  0  0
   12.9395   15.6297   20.3297 N   0  0  0  0  0  0  0  0  0  0  0  0
   13.1340   15.5813   21.6767 C   0  0  0  0  0  0  0  0  0  0  0  0
   14.2421   15.8205   22.1008 O   0  0  0  0  0  0  0  0  0  0  0  0
    9.7111   12.2358   23.1499 N   0  0  0  0  0  0  0  0  0  0  0  0
    8.9911   11.4560   24.0563 C   0  0  0  0  0  0  0  0  0  0  0  0
    8.0608   12.0141   24.9016 C   0  0  0  0  0  0  0  0  0  0  0  0
    7.3018   11.2005   25.7832 C   0  0  0  0  0  0  0  0  0  0  0  0
    7.5012    9.8385   25.8054 C   0  0  0  0  0  0  0  0  0  0  0  0
    8.4374    9.2421   24.9166 C   0  0  0  0  0  0  0  0  0  0  0  0
    8.4643    7.8703   24.9014 N   0  0  0  0  0  0  0  0  0  0  0  0
    9.1521    7.3043   23.9672 C   0  0  0  0  0  0  0  0  0  0  0  0
    8.9004    5.5917   23.6956 Cl  0  0  0  0  0  0  0  0  0  0  0  0
   10.0977    7.9700   23.1359 C   0  0  0  0  0  0  0  0  0  0  0  0
   10.1326    9.3386   23.1756 C   0  0  0  0  0  0  0  0  0  0  0  0
    9.2221   10.0401   24.0331 C   0  0  0  0  0  0  0  0  0  0  0  0
  1  2  2  0
  2  3  1  0
  4  3  1  6
  4  5  1  0
  5  6  1  0
  6  7  2  0
  6  8  1  0
  8  9  2  0
  9 10  1  0
 10 11  2  0
 11 12  1  0
 12 13  2  0
 13 14  1  0
 14 15  1  0
 15 16  2  0
  2 17  1  0
 17 18  1  0
 18 19  2  0
 19 20  1  0
 20 21  2  0
 21 22  1  0
 22 23  2  0
 23 24  1  0
 24 25  1  0
 24 26  2  0
 26 27  1  0
 27 28  2  0
 15  4  1  0
 28 18  1  0
 13  8  1  0
 28 22  1  0
M  END
>  <ref_pdb>  (150) 
x0554_0A

>  <ref_mols>  (150) 
x0554_0A,x0566_0A

>  <original SMILES>  (150) 
O=C(C[C@@H]1NC(=O)c2ccccc2NC1=O)Nc1cccc2nc(Cl)ccc12

>  <IC50 (nM)>  (150) 
1092.0436553562413

>  <CNNaffinity>  (150) 
5.96176

>  <rationale>  (150) 
-1

$$$$
Z3673052686
     RDKit          3D

 23 25  0  0  0  0  0  0  0  0999 V2000
    8.8404   14.9315   18.4940 O   0  0  0  0  0  0  0  0  0  0  0  0
    9.7914   14.8790   19.2364 C   0  0  0  0  0  0  0  0  0  0  0  0
   10.0383   15.8202   20.3952 C   0  0  0  0  0  0  0  0  0  0  0  0
   11.5306   16.1003   20.6088 C   0  0  0  0  0  0  0  0  0  0  0  0
   12.3833   14.8181   20.6596 C   0  0  1  0  0  0  0  0  0  0  0  0
   12.5221   14.1688   22.0757 C   0  0  0  0  0  0  0  0  0  0  0  0
   11.2339   13.9364   22.8525 C   0  0  0  0  0  0  0  0  0  0  0  0
   10.6935   14.8405   23.4654 O   0  0  0  0  0  0  0  0  0  0  0  0
   10.7427   12.6585   22.7662 N   0  0  0  0  0  0  0  0  0  0  0  0
    9.8160   12.0105   23.5992 C   0  0  0  0  0  0  0  0  0  0  0  0
    8.9553   12.7263   24.4044 C   0  0  0  0  0  0  0  0  0  0  0  0
    7.9924   12.0650   25.2157 C   0  0  0  0  0  0  0  0  0  0  0  0
    7.8974   10.6932   25.1939 C   0  0  0  0  0  0  0  0  0  0  0  0
    8.7745    9.9317   24.3765 C   0  0  0  0  0  0  0  0  0  0  0  0
    8.5784    8.5769   24.3894 N   0  0  0  0  0  0  0  0  0  0  0  0
    9.3663    7.8505   23.6672 C   0  0  0  0  0  0  0  0  0  0  0  0
    8.9766    6.1517   23.5209 Cl  0  0  0  0  0  0  0  0  0  0  0  0
   10.4997    8.3396   22.9598 C   0  0  0  0  0  0  0  0  0  0  0  0
   10.6969    9.6975   22.9139 C   0  0  0  0  0  0  0  0  0  0  0  0
    9.7867   10.5699   23.5952 C   0  0  0  0  0  0  0  0  0  0  0  0
   11.9828   13.8072   19.5765 C   0  0  0  0  0  0  0  0  0  0  0  0
   12.7362   12.9522   19.1724 O   0  0  0  0  0  0  0  0  0  0  0  0
   10.7153   13.8787   19.0633 N   0  0  0  0  0  0  0  0  0  0  0  0
  1  2  2  0
  2  3  1  0
  3  4  1  0
  4  5  1  0
  5  6  1  1
  6  7  1  0
  7  8  2  0
  7  9  1  0
  9 10  1  0
 10 11  2  0
 11 12  1  0
 12 13  2  0
 13 14  1  0
 14 15  2  0
 15 16  1  0
 16 17  1  0
 16 18  2  0
 18 19  1  0
 19 20  2  0
  5 21  1  0
 21 22  2  0
 21 23  1  0
 23  2  1  0
 20 10  1  0
 20 14  1  0
M  END
>  <ref_pdb>  (151) 
x0554_0A

>  <ref_mols>  (151) 
x0554_0A,x0566_0A

>  <original SMILES>  (151) 
O=C1CC[C@@H](CC(=O)Nc2cccc3nc(Cl)ccc23)C(=O)N1

>  <IC50 (nM)>  (151) 
1101.8183475571907

>  <CNNaffinity>  (151) 
5.95789

>  <rationale>  (151) 
-1

$$$$
Z3143280174
     RDKit          3D

 23 26  0  0  0  0  0  0  0  0999 V2000
   10.4315   14.8844   23.2130 O   0  0  0  0  0  0  0  0  0  0  0  0
   10.9921   13.9915   22.6030 C   0  0  0  0  0  0  0  0  0  0  0  0
   12.0339   14.3174   21.5527 C   0  0  0  0  0  0  0  0  0  0  0  0
   11.4673   14.9313   20.2613 C   0  0  2  0  0  0  0  0  0  0  0  0
   10.6128   13.9747   19.4174 C   0  0  0  0  0  0  0  0  0  0  0  0
   10.4050   14.4704   17.9649 C   0  0  1  0  0  0  0  0  0  0  0  0
    9.7998   15.8755   17.8586 C   0  0  0  0  0  0  0  0  0  0  0  0
   11.0235   16.8190   17.9706 C   0  0  0  0  0  0  0  0  0  0  0  0
   12.2364   15.8657   18.0031 C   0  0  1  0  0  0  0  0  0  0  0  0
   12.6371   15.5008   19.4462 C   0  0  0  0  0  0  0  0  0  0  0  0
   11.7034   14.6878   17.3032 N   0  0  0  0  0  0  0  0  0  0  0  0
   10.7554   12.6593   22.8034 N   0  0  0  0  0  0  0  0  0  0  0  0
    9.8289   12.0415   23.6523 C   0  0  0  0  0  0  0  0  0  0  0  0
    8.9617   12.7681   24.4422 C   0  0  0  0  0  0  0  0  0  0  0  0
    7.9612   12.1190   25.2126 C   0  0  0  0  0  0  0  0  0  0  0  0
    7.8644   10.7467   25.2002 C   0  0  0  0  0  0  0  0  0  0  0  0
    8.7666    9.9735   24.4207 C   0  0  0  0  0  0  0  0  0  0  0  0
    8.5609    8.6195   24.4348 N   0  0  0  0  0  0  0  0  0  0  0  0
    9.3361    7.8886   23.7027 C   0  0  0  0  0  0  0  0  0  0  0  0
    8.9253    6.1967   23.5493 Cl  0  0  0  0  0  0  0  0  0  0  0  0
   10.4663    8.3667   22.9825 C   0  0  0  0  0  0  0  0  0  0  0  0
   10.6836    9.7203   22.9519 C   0  0  0  0  0  0  0  0  0  0  0  0
    9.7937   10.6005   23.6529 C   0  0  0  0  0  0  0  0  0  0  0  0
  1  2  2  0
  2  3  1  0
  4  3  1  1
  4  5  1  0
  6  5  1  1
  6  7  1  0
  7  8  1  0
  9  8  1  1
  9 10  1  0
  9 11  1  0
  2 12  1  0
 12 13  1  0
 13 14  2  0
 14 15  1  0
 15 16  2  0
 16 17  1  0
 17 18  2  0
 18 19  1  0
 19 20  1  0
 19 21  2  0
 21 22  1  0
 22 23  2  0
 10  4  1  0
 23 13  1  0
 11  6  1  0
 23 17  1  0
M  END
>  <ref_pdb>  (152) 
x0554_0A

>  <ref_mols>  (152) 
x0554_0A,x0566_0A

>  <original SMILES>  (152) 
O=C(C[C@@H]1C[C@H]2CC[C@@H](C1)N2)Nc1cccc2nc(Cl)ccc12

>  <IC50 (nM)>  (152) 
1102.7574488229363

>  <CNNaffinity>  (152) 
5.95752

>  <rationale>  (152) 
-1

$$$$
Z4771045738
     RDKit          3D

 25 27  0  0  0  0  0  0  0  0999 V2000
    9.9277   13.9430   16.0592 C   0  0  0  0  0  0  0  0  0  0  0  0
   10.3858   14.6926   16.8838 C   0  0  0  0  0  0  0  0  0  0  0  0
   10.9796   15.6050   17.8912 C   0  0  0  0  0  0  0  0  0  0  0  0
   11.1867   16.8844   17.2948 O   0  0  0  0  0  0  0  0  0  0  0  0
   12.3418   15.0256   18.3534 C   0  0  0  0  0  0  0  0  0  0  0  0
   12.6503   15.3575   19.8101 C   0  0  0  0  0  0  0  0  0  0  0  0
   11.5685   14.9361   20.7051 N   0  0  0  0  0  0  0  0  0  0  0  0
   11.9344   14.1823   21.9084 C   0  0  1  0  0  0  0  0  0  0  0  0
   12.9823   15.0035   22.6829 C   0  0  0  0  0  0  0  0  0  0  0  0
   10.7607   13.8088   22.8900 C   0  0  0  0  0  0  0  0  0  0  0  0
   10.2164   14.6297   23.6081 O   0  0  0  0  0  0  0  0  0  0  0  0
   10.4246   12.4755   22.9058 N   0  0  0  0  0  0  0  0  0  0  0  0
    9.5612   11.7963   23.7785 C   0  0  0  0  0  0  0  0  0  0  0  0
    8.6499   12.4623   24.5716 C   0  0  0  0  0  0  0  0  0  0  0  0
    7.7356   11.7480   25.3885 C   0  0  0  0  0  0  0  0  0  0  0  0
    7.7543   10.3742   25.4079 C   0  0  0  0  0  0  0  0  0  0  0  0
    8.6796    9.6630   24.6001 C   0  0  0  0  0  0  0  0  0  0  0  0
    8.5513    8.3005   24.6150 N   0  0  0  0  0  0  0  0  0  0  0  0
    9.3088    7.6243   23.8154 C   0  0  0  0  0  0  0  0  0  0  0  0
    8.9330    5.9285   23.6134 Cl  0  0  0  0  0  0  0  0  0  0  0  0
   10.3907    8.1673   23.0671 C   0  0  0  0  0  0  0  0  0  0  0  0
   10.5467    9.5305   23.0554 C   0  0  0  0  0  0  0  0  0  0  0  0
    9.6300   10.3560   23.7901 C   0  0  0  0  0  0  0  0  0  0  0  0
   10.2131   14.8135   20.1862 C   0  0  0  0  0  0  0  0  0  0  0  0
   10.0157   15.8313   19.0723 C   0  0  0  0  0  0  0  0  0  0  0  0
  1  2  3  0
  2  3  1  0
  3  4  1  0
  3  5  1  0
  5  6  1  0
  6  7  1  0
  7  8  1  0
  8  9  1  1
  8 10  1  0
 10 11  2  0
 10 12  1  0
 12 13  1  0
 13 14  2  0
 14 15  1  0
 15 16  2  0
 16 17  1  0
 17 18  2  0
 18 19  1  0
 19 20  1  0
 19 21  2  0
 21 22  1  0
 22 23  2  0
  7 24  1  0
 24 25  1  0
 25  3  1  0
 23 13  1  0
 23 17  1  0
M  END
>  <ref_pdb>  (153) 
x0554_0A

>  <ref_mols>  (153) 
x0554_0A,x0566_0A

>  <original SMILES>  (153) 
C#CC1(O)CCN([C@@H](C)C(=O)Nc2cccc3nc(Cl)ccc23)CC1

>  <IC50 (nM)>  (153) 
1105.4522806118853

>  <CNNaffinity>  (153) 
5.95646

>  <rationale>  (153) 
-1

$$$$
PV_006740552109
     RDKit          3D

 23 26  0  0  0  0  0  0  0  0999 V2000
   10.7708   14.7556   23.6131 O   0  0  0  0  0  0  0  0  0  0  0  0
   11.2061   13.8913   22.8806 C   0  0  0  0  0  0  0  0  0  0  0  0
   12.4482   14.1093   21.9981 C   0  0  0  0  0  0  0  0  0  0  0  0
   12.1667   14.4288   20.5453 C   0  0  0  0  0  0  0  0  0  0  0  0
   11.6292   15.6070   20.0799 C   0  0  0  0  0  0  0  0  0  0  0  0
   11.4775   15.4871   18.7389 N   0  0  0  0  0  0  0  0  0  0  0  0
   10.9120   16.4659   17.8403 C   0  0  0  0  0  0  0  0  0  0  0  0
    9.5959   17.1334   18.1534 C   0  0  0  0  0  0  0  0  0  0  0  0
    9.6796   16.1484   17.0286 C   0  0  0  0  0  0  0  0  0  0  0  0
   11.9309   14.3102   18.2865 N   0  0  0  0  0  0  0  0  0  0  0  0
   12.3410   13.6598   19.3645 C   0  0  0  0  0  0  0  0  0  0  0  0
   10.6698   12.6352   22.7707 N   0  0  0  0  0  0  0  0  0  0  0  0
    9.7741   11.9874   23.6343 C   0  0  0  0  0  0  0  0  0  0  0  0
    8.9130   12.6888   24.4516 C   0  0  0  0  0  0  0  0  0  0  0  0
    7.9623   12.0080   25.2616 C   0  0  0  0  0  0  0  0  0  0  0  0
    7.8867   10.6346   25.2352 C   0  0  0  0  0  0  0  0  0  0  0  0
    8.7665    9.8880   24.4076 C   0  0  0  0  0  0  0  0  0  0  0  0
    8.5809    8.5314   24.4042 N   0  0  0  0  0  0  0  0  0  0  0  0
    9.3729    7.8198   23.6712 C   0  0  0  0  0  0  0  0  0  0  0  0
    8.9810    6.1251   23.4888 Cl  0  0  0  0  0  0  0  0  0  0  0  0
   10.5069    8.3259   22.9771 C   0  0  0  0  0  0  0  0  0  0  0  0
   10.6899    9.6861   22.9430 C   0  0  0  0  0  0  0  0  0  0  0  0
    9.7674   10.5448   23.6274 C   0  0  0  0  0  0  0  0  0  0  0  0
  1  2  2  0
  2  3  1  0
  3  4  1  0
  4  5  2  0
  5  6  1  0
  6  7  1  0
  7  8  1  0
  8  9  1  0
  6 10  1  0
 10 11  2  0
  2 12  1  0
 12 13  1  0
 13 14  2  0
 14 15  1  0
 15 16  2  0
 16 17  1  0
 17 18  2  0
 18 19  1  0
 19 20  1  0
 19 21  2  0
 21 22  1  0
 22 23  2  0
 11  4  1  0
 23 13  1  0
  9  7  1  0
 23 17  1  0
M  END
>  <ref_pdb>  (154) 
x0554_0A

>  <ref_mols>  (154) 
x0554_0A,x0566_0A

>  <original SMILES>  (154) 
O=C(Cc1cnn(C2CC2)c1)Nc1cccc2nc(Cl)ccc12

>  <IC50 (nM)>  (154) 
1108.7151960259694

>  <CNNaffinity>  (154) 
5.95518

>  <rationale>  (154) 
-1

$$$$
PV_006812450118
     RDKit          3D

 26 28  0  0  0  0  0  0  0  0999 V2000
    9.1306   15.8565   17.7651 C   0  0  0  0  0  0  0  0  0  0  0  0
   10.6358   15.6573   17.7987 C   0  0  0  0  0  0  0  0  0  0  0  0
   11.3247   16.7751   17.0404 C   0  0  0  0  0  0  0  0  0  0  0  0
   11.0462   14.3252   17.1985 C   0  0  0  0  0  0  0  0  0  0  0  0
   11.1156   15.7919   19.1735 O   0  0  0  0  0  0  0  0  0  0  0  0
   10.7621   14.9014   20.0963 C   0  0  0  0  0  0  0  0  0  0  0  0
   10.0642   13.9091   19.9458 O   0  0  0  0  0  0  0  0  0  0  0  0
   11.2712   15.1783   21.3765 N   0  0  0  0  0  0  0  0  0  0  0  0
   12.1851   16.2263   21.5384 O   0  0  0  0  0  0  0  0  0  0  0  0
   13.4385   15.5839   21.7970 C   0  0  0  0  0  0  0  0  0  0  0  0
   13.0384   14.5066   22.7905 C   0  0  0  0  0  0  0  0  0  0  0  0
   11.7131   14.0323   22.2001 C   0  0  1  0  0  0  0  0  0  0  0  0
   10.6900   13.5821   23.2673 C   0  0  0  0  0  0  0  0  0  0  0  0
   10.6397   14.0645   24.3816 O   0  0  0  0  0  0  0  0  0  0  0  0
    9.9087   12.5428   22.8453 N   0  0  0  0  0  0  0  0  0  0  0  0
    9.1437   11.7455   23.7216 C   0  0  0  0  0  0  0  0  0  0  0  0
    8.2531   12.3578   24.5731 C   0  0  0  0  0  0  0  0  0  0  0  0
    7.4574   11.6017   25.4722 C   0  0  0  0  0  0  0  0  0  0  0  0
    7.5729   10.2310   25.4952 C   0  0  0  0  0  0  0  0  0  0  0  0
    8.4846    9.5733   24.6243 C   0  0  0  0  0  0  0  0  0  0  0  0
    8.4982    8.2046   24.6716 N   0  0  0  0  0  0  0  0  0  0  0  0
    9.2507    7.5848   23.8263 C   0  0  0  0  0  0  0  0  0  0  0  0
    8.9721    5.8673   23.6233 Cl  0  0  0  0  0  0  0  0  0  0  0  0
   10.2485    8.2064   23.0235 C   0  0  0  0  0  0  0  0  0  0  0  0
   10.2807    9.5798   22.9847 C   0  0  0  0  0  0  0  0  0  0  0  0
    9.3194   10.3238   23.7395 C   0  0  0  0  0  0  0  0  0  0  0  0
  1  2  1  0
  2  3  1  0
  2  4  1  0
  2  5  1  0
  5  6  1  0
  6  7  2  0
  6  8  1  0
  8  9  1  0
  9 10  1  0
 10 11  1  0
 11 12  1  0
 12 13  1  1
 13 14  2  0
 13 15  1  0
 15 16  1  0
 16 17  2  0
 17 18  1  0
 18 19  2  0
 19 20  1  0
 20 21  2  0
 21 22  1  0
 22 23  1  0
 22 24  2  0
 24 25  1  0
 25 26  2  0
 12  8  1  0
 26 16  1  0
 26 20  1  0
M  END
>  <ref_pdb>  (155) 
x0554_0A

>  <ref_mols>  (155) 
x0554_0A,x0566_0A

>  <original SMILES>  (155) 
CC(C)(C)OC(=O)N1OCC[C@H]1C(=O)Nc1cccc2nc(Cl)ccc12

>  <IC50 (nM)>  (155) 
1114.9618303931813

>  <CNNaffinity>  (155) 
5.95274

>  <rationale>  (155) 
-1

$$$$
PV_002342100894
     RDKit          3D

 27 30  0  0  0  0  0  0  0  0999 V2000
   12.6858   13.0405   22.0100 C   0  0  0  0  0  0  0  0  0  0  0  0
   11.8755   14.1539   22.2878 C   0  0  2  0  0  0  0  0  0  0  0  0
   10.7748   13.7984   23.4635 C   0  0  0  0  0  0  0  0  0  0  0  0
   10.7159   14.4581   24.4783 O   0  0  0  0  0  0  0  0  0  0  0  0
   10.0387   12.6772   23.2083 N   0  0  0  0  0  0  0  0  0  0  0  0
    9.1630   11.9525   24.0652 C   0  0  0  0  0  0  0  0  0  0  0  0
    8.5252   12.6037   25.1181 C   0  0  0  0  0  0  0  0  0  0  0  0
    7.7633   11.8566   26.0456 C   0  0  0  0  0  0  0  0  0  0  0  0
    7.7800   10.4754   26.0144 C   0  0  0  0  0  0  0  0  0  0  0  0
    8.5526    9.7828   25.0437 C   0  0  0  0  0  0  0  0  0  0  0  0
    8.4528    8.4149   25.0330 N   0  0  0  0  0  0  0  0  0  0  0  0
    9.0887    7.7836   24.0924 C   0  0  0  0  0  0  0  0  0  0  0  0
    8.7401    6.0801   23.8984 Cl  0  0  0  0  0  0  0  0  0  0  0  0
   10.0037    8.3748   23.1835 C   0  0  0  0  0  0  0  0  0  0  0  0
   10.1314    9.7471   23.2092 C   0  0  0  0  0  0  0  0  0  0  0  0
    9.3453   10.5113   24.1100 C   0  0  0  0  0  0  0  0  0  0  0  0
   11.4020   14.8119   20.9872 N   0  0  0  0  0  0  0  0  0  0  0  0
   10.2043   14.5386   20.3282 C   0  0  0  0  0  0  0  0  0  0  0  0
    9.2420   14.0310   20.8574 O   0  0  0  0  0  0  0  0  0  0  0  0
   10.3610   14.9998   18.9213 C   0  0  0  0  0  0  0  0  0  0  0  0
    9.4550   15.0012   17.8583 C   0  0  0  0  0  0  0  0  0  0  0  0
    9.9129   15.4598   16.6187 C   0  0  0  0  0  0  0  0  0  0  0  0
   11.2471   15.8871   16.4529 C   0  0  0  0  0  0  0  0  0  0  0  0
   12.1381   15.9067   17.5327 C   0  0  0  0  0  0  0  0  0  0  0  0
   11.6622   15.4705   18.7712 C   0  0  0  0  0  0  0  0  0  0  0  0
   12.3308   15.3868   20.1026 C   0  0  0  0  0  0  0  0  0  0  0  0
   13.4430   15.7323   20.4182 O   0  0  0  0  0  0  0  0  0  0  0  0
  2  1  1  6
  2  3  1  0
  3  4  2  0
  3  5  1  0
  5  6  1  0
  6  7  2  0
  7  8  1  0
  8  9  2  0
  9 10  1  0
 10 11  2  0
 11 12  1  0
 12 13  1  0
 12 14  2  0
 14 15  1  0
 15 16  2  0
  2 17  1  0
 17 18  1  0
 18 19  2  0
 18 20  1  0
 20 21  2  0
 21 22  1  0
 22 23  2  0
 23 24  1  0
 24 25  2  0
 25 26  1  0
 26 27  2  0
 16  6  1  0
 26 17  1  0
 16 10  1  0
 25 20  1  0
M  END
>  <ref_pdb>  (156) 
x0554_0A

>  <ref_mols>  (156) 
x0554_0A,x0566_0A

>  <original SMILES>  (156) 
C[C@H](C(=O)Nc1cccc2nc(Cl)ccc12)N1C(=O)c2ccccc2C1=O

>  <IC50 (nM)>  (156) 
1119.3090108366475

>  <CNNaffinity>  (156) 
5.95105

>  <rationale>  (156) 
-1

$$$$
PV_007061344803
     RDKit          3D

 26 29  0  0  0  0  0  0  0  0999 V2000
   10.5817   14.7620   23.1747 O   0  0  0  0  0  0  0  0  0  0  0  0
   11.0527   13.8789   22.4823 C   0  0  0  0  0  0  0  0  0  0  0  0
   12.0158   14.2388   21.3734 C   0  0  0  0  0  0  0  0  0  0  0  0
   11.3785   14.9242   20.1176 C   0  0  0  0  0  0  0  0  0  0  0  0
   10.5345   16.1711   20.4458 C   0  0  0  0  0  0  0  0  0  0  0  0
   10.9651   17.1736   21.2080 N   0  0  0  0  0  0  0  0  0  0  0  0
    9.9939   18.0580   21.0538 N   0  0  0  0  0  0  0  0  0  0  0  0
    9.0083   17.6709   20.2825 N   0  0  0  0  0  0  0  0  0  0  0  0
    9.3329   16.4776   19.8847 N   0  0  0  0  0  0  0  0  0  0  0  0
   10.5775   13.8769   19.3161 C   0  0  0  0  0  0  0  0  0  0  0  0
   10.2298   14.3260   17.8885 C   0  0  0  0  0  0  0  0  0  0  0  0
   11.4038   14.7371   17.1963 O   0  0  0  0  0  0  0  0  0  0  0  0
   12.1103   15.7892   17.8350 C   0  0  0  0  0  0  0  0  0  0  0  0
   12.5724   15.3524   19.2269 C   0  0  0  0  0  0  0  0  0  0  0  0
   10.7773   12.5467   22.6479 N   0  0  0  0  0  0  0  0  0  0  0  0
    9.8868   11.9506   23.5570 C   0  0  0  0  0  0  0  0  0  0  0  0
    9.0669   12.7235   24.3546 C   0  0  0  0  0  0  0  0  0  0  0  0
    8.0692   12.1329   25.1720 C   0  0  0  0  0  0  0  0  0  0  0  0
    7.9213   10.7676   25.1990 C   0  0  0  0  0  0  0  0  0  0  0  0
    8.7842    9.9437   24.4295 C   0  0  0  0  0  0  0  0  0  0  0  0
    8.5380    8.5995   24.5070 N   0  0  0  0  0  0  0  0  0  0  0  0
    9.2864    7.8107   23.8093 C   0  0  0  0  0  0  0  0  0  0  0  0
    8.8257    6.1222   23.7441 Cl  0  0  0  0  0  0  0  0  0  0  0  0
   10.4294    8.2239   23.0685 C   0  0  0  0  0  0  0  0  0  0  0  0
   10.6893    9.5711   22.9715 C   0  0  0  0  0  0  0  0  0  0  0  0
    9.8212   10.5096   23.6221 C   0  0  0  0  0  0  0  0  0  0  0  0
  1  2  2  0
  2  3  1  0
  3  4  1  0
  4  5  1  0
  5  6  2  0
  6  7  1  0
  7  8  1  0
  8  9  2  0
  4 10  1  0
 10 11  1  0
 11 12  1  0
 12 13  1  0
 13 14  1  0
  2 15  1  0
 15 16  1  0
 16 17  2  0
 17 18  1  0
 18 19  2  0
 19 20  1  0
 20 21  2  0
 21 22  1  0
 22 23  1  0
 22 24  2  0
 24 25  1  0
 25 26  2  0
 14  4  1  0
 26 16  1  0
  9  5  1  0
 26 20  1  0
M  END
>  <ref_pdb>  (157) 
x0554_0A

>  <ref_mols>  (157) 
x0554_0A,x0566_0A

>  <original SMILES>  (157) 
O=C(CC1(c2nn[nH]n2)CCOCC1)Nc1cccc2nc(Cl)ccc12

>  <IC50 (nM)>  (157) 
1119.5925502098855

>  <CNNaffinity>  (157) 
5.95094

>  <rationale>  (157) 
-1

$$$$
PV_002349709066
     RDKit          3D

 27 30  0  0  0  0  0  0  0  0999 V2000
   10.1090   14.4603   23.2876 O   0  0  0  0  0  0  0  0  0  0  0  0
   10.6251   13.5206   22.7137 C   0  0  0  0  0  0  0  0  0  0  0  0
   10.0968   12.2600   22.7017 N   0  0  0  0  0  0  0  0  0  0  0  0
    9.3196   11.6323   23.6760 C   0  0  0  0  0  0  0  0  0  0  0  0
    8.4426   12.3316   24.4748 C   0  0  0  0  0  0  0  0  0  0  0  0
    7.6221   11.6465   25.4122 C   0  0  0  0  0  0  0  0  0  0  0  0
    7.6878   10.2771   25.5177 C   0  0  0  0  0  0  0  0  0  0  0  0
    8.5731    9.5385   24.6870 C   0  0  0  0  0  0  0  0  0  0  0  0
    8.4927    8.1741   24.7810 N   0  0  0  0  0  0  0  0  0  0  0  0
    9.2052    7.4805   23.9569 C   0  0  0  0  0  0  0  0  0  0  0  0
    8.8486    5.7717   23.8282 Cl  0  0  0  0  0  0  0  0  0  0  0  0
   10.2449    8.0067   23.1378 C   0  0  0  0  0  0  0  0  0  0  0  0
   10.3638    9.3684   23.0561 C   0  0  0  0  0  0  0  0  0  0  0  0
    9.4480   10.2044   23.7805 C   0  0  0  0  0  0  0  0  0  0  0  0
   11.9375   13.6035   21.9331 C   0  0  2  0  0  0  0  0  0  0  0  0
   13.0098   14.3715   22.7556 C   0  0  0  0  0  0  0  0  0  0  0  0
   13.4205   15.6260   21.9825 C   0  0  0  0  0  0  0  0  0  0  0  0
   12.1157   16.3681   21.7111 C   0  0  0  0  0  0  0  0  0  0  0  0
   11.4397   15.6545   20.6032 N   0  0  0  0  0  0  0  0  0  0  0  0
   10.7557   16.4224   19.6946 C   0  0  0  0  0  0  0  0  0  0  0  0
   10.4608   17.5872   19.9594 O   0  0  0  0  0  0  0  0  0  0  0  0
   10.3522   15.8810   18.3537 C   0  0  0  0  0  0  0  0  0  0  0  0
    9.4757   16.4261   17.4585 C   0  0  0  0  0  0  0  0  0  0  0  0
    9.5002   15.5801   16.3111 C   0  0  0  0  0  0  0  0  0  0  0  0
   10.3831   14.5852   16.5746 C   0  0  0  0  0  0  0  0  0  0  0  0
   10.9095   14.7458   17.8102 O   0  0  0  0  0  0  0  0  0  0  0  0
   11.6432   14.1936   20.5285 C   0  0  0  0  0  0  0  0  0  0  0  0
  1  2  2  0
  2  3  1  0
  3  4  1  0
  4  5  2  0
  5  6  1  0
  6  7  2  0
  7  8  1  0
  8  9  2  0
  9 10  1  0
 10 11  1  0
 10 12  2  0
 12 13  1  0
 13 14  2  0
 15  2  1  1
 15 16  1  0
 16 17  1  0
 17 18  1  0
 18 19  1  0
 19 20  1  0
 20 21  2  0
 20 22  1  0
 22 23  2  0
 23 24  1  0
 24 25  2  0
 25 26  1  0
 19 27  1  0
 14  4  1  0
 27 15  1  0
 14  8  1  0
 26 22  1  0
M  END
>  <ref_pdb>  (158) 
x0554_0A

>  <ref_mols>  (158) 
x0554_0A,x0566_0A

>  <original SMILES>  (158) 
O=C(Nc1cccc2nc(Cl)ccc12)[C@@H]1CCCN(C(=O)c2ccco2)C1

>  <IC50 (nM)>  (158) 
1120.624208079498

>  <CNNaffinity>  (158) 
5.95054

>  <rationale>  (158) 
-1

$$$$
PV_007076622241
     RDKit          3D

 27 30  0  0  0  0  0  0  0  0999 V2000
   11.2980   14.2719   23.7971 O   0  0  0  0  0  0  0  0  0  0  0  0
   11.4141   13.5292   22.8450 C   0  0  0  0  0  0  0  0  0  0  0  0
   12.4649   13.7057   21.7475 C   0  0  0  0  0  0  0  0  0  0  0  0
   13.0025   15.1335   21.5191 C   0  0  0  0  0  0  0  0  0  0  0  0
   11.9824   16.1297   21.0953 C   0  0  0  0  0  0  0  0  0  0  0  0
   11.4794   17.0887   21.7855 N   0  0  0  0  0  0  0  0  0  0  0  0
   10.5529   17.7243   20.9810 N   0  0  0  0  0  0  0  0  0  0  0  0
   10.5628   17.0964   19.8490 C   0  0  0  0  0  0  0  0  0  0  0  0
    9.8319   17.4676   18.6088 C   0  0  0  0  0  0  0  0  0  0  0  0
    8.9342   18.5529   18.6287 C   0  0  0  0  0  0  0  0  0  0  0  0
    8.3551   18.9727   17.4293 C   0  0  0  0  0  0  0  0  0  0  0  0
    8.5672   18.3654   16.2502 N   0  0  0  0  0  0  0  0  0  0  0  0
    9.3895   17.3091   16.2425 C   0  0  0  0  0  0  0  0  0  0  0  0
   10.0501   16.8271   17.3763 C   0  0  0  0  0  0  0  0  0  0  0  0
   11.4506   16.0651   19.8464 O   0  0  0  0  0  0  0  0  0  0  0  0
   10.6443   12.4128   22.6638 N   0  0  0  0  0  0  0  0  0  0  0  0
    9.7738   11.8238   23.5890 C   0  0  0  0  0  0  0  0  0  0  0  0
    8.9380   12.5844   24.3785 C   0  0  0  0  0  0  0  0  0  0  0  0
    7.9729   11.9622   25.2178 C   0  0  0  0  0  0  0  0  0  0  0  0
    7.8748   10.5909   25.2537 C   0  0  0  0  0  0  0  0  0  0  0  0
    8.7421    9.7899   24.4629 C   0  0  0  0  0  0  0  0  0  0  0  0
    8.5415    8.4388   24.5235 N   0  0  0  0  0  0  0  0  0  0  0  0
    9.2936    7.6833   23.7938 C   0  0  0  0  0  0  0  0  0  0  0  0
    8.8551    5.9924   23.6908 Cl  0  0  0  0  0  0  0  0  0  0  0  0
   10.4245    8.1363   23.0581 C   0  0  0  0  0  0  0  0  0  0  0  0
   10.6426    9.4894   22.9836 C   0  0  0  0  0  0  0  0  0  0  0  0
    9.7446   10.3889   23.6458 C   0  0  0  0  0  0  0  0  0  0  0  0
  1  2  2  0
  2  3  1  0
  3  4  1  0
  4  5  1  0
  5  6  2  0
  6  7  1  0
  7  8  2  0
  8  9  1  0
  9 10  2  0
 10 11  1  0
 11 12  2  0
 12 13  1  0
 13 14  2  0
  8 15  1  0
  2 16  1  0
 16 17  1  0
 17 18  2  0
 18 19  1  0
 19 20  2  0
 20 21  1  0
 21 22  2  0
 22 23  1  0
 23 24  1  0
 23 25  2  0
 25 26  1  0
 26 27  2  0
 15  5  1  0
 27 17  1  0
 14  9  1  0
 27 21  1  0
M  END
>  <ref_pdb>  (159) 
x0554_0A

>  <ref_mols>  (159) 
x0554_0A,x0566_0A

>  <original SMILES>  (159) 
O=C(CCc1nnc(-c2ccncc2)o1)Nc1cccc2nc(Cl)ccc12

>  <IC50 (nM)>  (159) 
1122.4060526790206

>  <CNNaffinity>  (159) 
5.94985

>  <rationale>  (159) 
-1

$$$$
Z4410143805
     RDKit          3D

 23 25  0  0  0  0  0  0  0  0999 V2000
   11.1859   15.8596   19.1031 C   0  0  0  0  0  0  0  0  0  0  0  0
   10.7525   16.4378   20.4511 C   0  0  0  0  0  0  0  0  0  0  0  0
   11.6706   16.0715   21.6213 C   0  0  0  0  0  0  0  0  0  0  0  0
   11.5636   14.5935   22.0183 C   0  0  2  0  0  0  0  0  0  0  0  0
   10.2136   14.1490   22.5969 C   0  0  0  0  0  0  0  0  0  0  0  0
    9.2674   14.8886   22.7719 O   0  0  0  0  0  0  0  0  0  0  0  0
   10.2103   12.8029   22.8649 N   0  0  0  0  0  0  0  0  0  0  0  0
    9.3803   12.0748   23.7173 C   0  0  0  0  0  0  0  0  0  0  0  0
    8.4853   12.7001   24.5530 C   0  0  0  0  0  0  0  0  0  0  0  0
    7.6221   11.9353   25.3807 C   0  0  0  0  0  0  0  0  0  0  0  0
    7.6770   10.5605   25.3473 C   0  0  0  0  0  0  0  0  0  0  0  0
    8.5992    9.8956   24.4924 C   0  0  0  0  0  0  0  0  0  0  0  0
    8.5362    8.5272   24.4629 N   0  0  0  0  0  0  0  0  0  0  0  0
    9.3507    7.9056   23.6734 C   0  0  0  0  0  0  0  0  0  0  0  0
    9.0763    6.1981   23.4106 Cl  0  0  0  0  0  0  0  0  0  0  0  0
   10.4152    8.5188   22.9534 C   0  0  0  0  0  0  0  0  0  0  0  0
   10.4867    9.8875   22.9592 C   0  0  0  0  0  0  0  0  0  0  0  0
    9.5177   10.6443   23.6995 C   0  0  0  0  0  0  0  0  0  0  0  0
   12.5731   14.1301   23.0198 C   0  0  0  0  0  0  0  0  0  0  0  0
   12.6836   14.5797   24.2595 N   0  0  0  0  0  0  0  0  0  0  0  0
   13.5871   13.7400   24.7474 N   0  0  0  0  0  0  0  0  0  0  0  0
   13.9903   12.8172   23.9170 N   0  0  0  0  0  0  0  0  0  0  0  0
   13.3186   13.0226   22.8182 N   0  0  0  0  0  0  0  0  0  0  0  0
  1  2  1  0
  2  3  1  0
  4  3  1  1
  4  5  1  0
  5  6  2  0
  5  7  1  0
  7  8  1  0
  8  9  2  0
  9 10  1  0
 10 11  2  0
 11 12  1  0
 12 13  2  0
 13 14  1  0
 14 15  1  0
 14 16  2  0
 16 17  1  0
 17 18  2  0
  4 19  1  0
 19 20  2  0
 20 21  1  0
 21 22  1  0
 22 23  2  0
 18  8  1  0
 23 19  1  0
 18 12  1  0
M  END
>  <ref_pdb>  (160) 
x0554_0A

>  <ref_mols>  (160) 
x0554_0A,x0566_0A

>  <original SMILES>  (160) 
CCC[C@H](C(=O)Nc1cccc2nc(Cl)ccc12)c1nn[nH]n1

>  <IC50 (nM)>  (160) 
1128.807795561348

>  <CNNaffinity>  (160) 
5.94738

>  <rationale>  (160) 
-1

$$$$
PV_006747690903
     RDKit          3D

 23 26  0  0  0  0  0  0  0  0999 V2000
   10.1873   14.6293   23.1077 O   0  0  0  0  0  0  0  0  0  0  0  0
   10.8445   13.7243   22.6109 C   0  0  0  0  0  0  0  0  0  0  0  0
   10.4936   12.4162   22.7371 N   0  0  0  0  0  0  0  0  0  0  0  0
    9.6178   11.8203   23.6471 C   0  0  0  0  0  0  0  0  0  0  0  0
    8.7500   12.5501   24.4346 C   0  0  0  0  0  0  0  0  0  0  0  0
    7.8344   11.8911   25.2971 C   0  0  0  0  0  0  0  0  0  0  0  0
    7.8022   10.5181   25.3510 C   0  0  0  0  0  0  0  0  0  0  0  0
    8.6900    9.7505   24.5491 C   0  0  0  0  0  0  0  0  0  0  0  0
    8.5355    8.3917   24.6016 N   0  0  0  0  0  0  0  0  0  0  0  0
    9.2802    7.6732   23.8282 C   0  0  0  0  0  0  0  0  0  0  0  0
    8.8680    5.9797   23.6872 Cl  0  0  0  0  0  0  0  0  0  0  0  0
   10.3769    8.1657   23.0656 C   0  0  0  0  0  0  0  0  0  0  0  0
   10.5596    9.5223   23.0116 C   0  0  0  0  0  0  0  0  0  0  0  0
    9.6544   10.3858   23.7152 C   0  0  0  0  0  0  0  0  0  0  0  0
   12.1141   13.9722   21.7974 C   0  0  2  0  0  0  0  0  0  0  0  0
   12.9510   15.0009   22.5756 C   0  0  0  0  0  0  0  0  0  0  0  0
   12.2667   16.2611   22.3002 N   0  0  0  0  0  0  0  0  0  0  0  0
   12.0774   16.2036   20.8558 C   0  0  0  0  0  0  0  0  0  0  0  0
   11.8040   14.7103   20.4545 C   0  0  0  0  0  0  0  0  0  0  0  0
   12.6820   14.2957   19.2555 C   0  0  0  0  0  0  0  0  0  0  0  0
   11.9949   14.9166   18.0221 C   0  0  0  0  0  0  0  0  0  0  0  0
   10.5083   15.0860   18.4227 C   0  0  0  0  0  0  0  0  0  0  0  0
   10.4001   14.5059   19.8447 C   0  0  0  0  0  0  0  0  0  0  0  0
  1  2  2  0
  2  3  1  0
  3  4  1  0
  4  5  2  0
  5  6  1  0
  6  7  2  0
  7  8  1  0
  8  9  2  0
  9 10  1  0
 10 11  1  0
 10 12  2  0
 12 13  1  0
 13 14  2  0
 15  2  1  1
 15 16  1  0
 16 17  1  0
 17 18  1  0
 18 19  1  0
 19 20  1  0
 20 21  1  0
 21 22  1  0
 22 23  1  0
 14  4  1  0
 19 15  1  0
 14  8  1  0
 23 19  1  0
M  END
>  <ref_pdb>  (161) 
x0554_0A

>  <ref_mols>  (161) 
x0554_0A,x0566_0A

>  <original SMILES>  (161) 
O=C(Nc1cccc2nc(Cl)ccc12)[C@@H]1CNCC12CCCC2

>  <IC50 (nM)>  (161) 
1129.847944895454

>  <CNNaffinity>  (161) 
5.94698

>  <rationale>  (161) 
-1

$$$$
PV_007100287373
     RDKit          3D

 28 31  0  0  0  0  0  0  0  0999 V2000
    8.6338   17.9264   15.9605 N   0  0  0  0  0  0  0  0  0  0  0  0
    9.0100   17.3075   16.8659 C   0  0  0  0  0  0  0  0  0  0  0  0
    9.4995   16.5147   17.9693 C   0  0  0  0  0  0  0  0  0  0  0  0
    9.9421   15.1969   17.7351 C   0  0  0  0  0  0  0  0  0  0  0  0
   10.4623   14.4557   18.7865 C   0  0  0  0  0  0  0  0  0  0  0  0
   10.5918   15.0072   20.0823 C   0  0  0  0  0  0  0  0  0  0  0  0
   11.2813   14.2562   21.0410 N   0  0  0  0  0  0  0  0  0  0  0  0
   12.5065   13.5716   20.6287 C   0  0  0  0  0  0  0  0  0  0  0  0
   12.7889   12.7101   21.8531 C   0  0  1  0  0  0  0  0  0  0  0  0
   13.9458   11.9187   21.8295 O   0  0  0  0  0  0  0  0  0  0  0  0
   12.6382   13.7754   22.9410 C   0  0  0  0  0  0  0  0  0  0  0  0
   11.3373   14.5296   22.5029 C   0  0  2  0  0  0  0  0  0  0  0  0
   10.1199   14.0815   23.4002 C   0  0  0  0  0  0  0  0  0  0  0  0
    9.7169   14.8014   24.2942 O   0  0  0  0  0  0  0  0  0  0  0  0
    9.6426   12.8109   23.1727 N   0  0  0  0  0  0  0  0  0  0  0  0
    8.9524   11.9892   24.0796 C   0  0  0  0  0  0  0  0  0  0  0  0
    8.0889   12.5366   25.0014 C   0  0  0  0  0  0  0  0  0  0  0  0
    7.3960   11.7159   25.9293 C   0  0  0  0  0  0  0  0  0  0  0  0
    7.5794   10.3529   25.9123 C   0  0  0  0  0  0  0  0  0  0  0  0
    8.4337    9.7595   24.9439 C   0  0  0  0  0  0  0  0  0  0  0  0
    8.4607    8.3890   24.9375 N   0  0  0  0  0  0  0  0  0  0  0  0
    9.1097    7.8106   23.9791 C   0  0  0  0  0  0  0  0  0  0  0  0
    8.8667    6.0888   23.7590 Cl  0  0  0  0  0  0  0  0  0  0  0  0
    9.9448    8.4820   23.0425 C   0  0  0  0  0  0  0  0  0  0  0  0
    9.9690    9.8558   23.0666 C   0  0  0  0  0  0  0  0  0  0  0  0
    9.1492   10.5656   24.0057 C   0  0  0  0  0  0  0  0  0  0  0  0
   10.0588   16.2838   20.3314 C   0  0  0  0  0  0  0  0  0  0  0  0
    9.5307   17.0371   19.2798 C   0  0  0  0  0  0  0  0  0  0  0  0
  1  2  3  0
  2  3  1  0
  3  4  2  0
  4  5  1  0
  5  6  2  0
  6  7  1  0
  7  8  1  0
  8  9  1  0
  9 10  1  6
  9 11  1  0
 11 12  1  0
 12 13  1  1
 13 14  2  0
 13 15  1  0
 15 16  1  0
 16 17  2  0
 17 18  1  0
 18 19  2  0
 19 20  1  0
 20 21  2  0
 21 22  1  0
 22 23  1  0
 22 24  2  0
 24 25  1  0
 25 26  2  0
  6 27  1  0
 27 28  2  0
 28  3  1  0
 12  7  1  0
 26 16  1  0
 26 20  1  0
M  END
>  <ref_pdb>  (162) 
x0554_0A

>  <ref_mols>  (162) 
x0554_0A,x0566_0A

>  <original SMILES>  (162) 
N#Cc1ccc(N2C[C@@H](O)C[C@@H]2C(=O)Nc2cccc3nc(Cl)ccc23)cc1

>  <IC50 (nM)>  (162) 
1134.4360002997491

>  <CNNaffinity>  (162) 
5.94522

>  <rationale>  (162) 
-1

$$$$
PV_002425345985
     RDKit          3D

 23 26  0  0  0  0  0  0  0  0999 V2000
   10.8458   14.7708   23.6401 O   0  0  0  0  0  0  0  0  0  0  0  0
   11.3132   13.8930   22.9469 C   0  0  0  0  0  0  0  0  0  0  0  0
   12.5269   14.1402   22.0636 C   0  0  0  0  0  0  0  0  0  0  0  0
   12.0169   14.5300   20.7171 C   0  0  0  0  0  0  0  0  0  0  0  0
   11.4187   15.6450   20.2305 C   0  0  0  0  0  0  0  0  0  0  0  0
   11.0156   15.2686   18.9124 C   0  0  0  0  0  0  0  0  0  0  0  0
   10.2488   16.0015   17.8657 C   0  0  0  0  0  0  0  0  0  0  0  0
   10.8495   16.2108   16.4987 C   0  0  0  0  0  0  0  0  0  0  0  0
   10.6025   17.3874   17.3966 C   0  0  0  0  0  0  0  0  0  0  0  0
   11.3412   14.0268   18.6655 N   0  0  0  0  0  0  0  0  0  0  0  0
   11.9834   13.5695   19.7913 O   0  0  0  0  0  0  0  0  0  0  0  0
   10.8008   12.6313   22.8134 N   0  0  0  0  0  0  0  0  0  0  0  0
    9.8451   11.9875   23.6116 C   0  0  0  0  0  0  0  0  0  0  0  0
    8.9732   12.7149   24.3922 C   0  0  0  0  0  0  0  0  0  0  0  0
    7.9949   12.0671   25.1920 C   0  0  0  0  0  0  0  0  0  0  0  0
    7.8908   10.6958   25.1778 C   0  0  0  0  0  0  0  0  0  0  0  0
    8.7668    9.9227   24.3732 C   0  0  0  0  0  0  0  0  0  0  0  0
    8.5628    8.5694   24.3948 N   0  0  0  0  0  0  0  0  0  0  0  0
    9.3521    7.8335   23.6851 C   0  0  0  0  0  0  0  0  0  0  0  0
    8.9515    6.1370   23.5462 Cl  0  0  0  0  0  0  0  0  0  0  0  0
   10.4915    8.3121   22.9793 C   0  0  0  0  0  0  0  0  0  0  0  0
   10.6962    9.6680   22.9238 C   0  0  0  0  0  0  0  0  0  0  0  0
    9.7918   10.5492   23.5979 C   0  0  0  0  0  0  0  0  0  0  0  0
  1  2  2  0
  2  3  1  0
  3  4  1  0
  4  5  2  0
  5  6  1  0
  6  7  1  0
  7  8  1  0
  8  9  1  0
  6 10  2  0
 10 11  1  0
  2 12  1  0
 12 13  1  0
 13 14  2  0
 14 15  1  0
 15 16  2  0
 16 17  1  0
 17 18  2  0
 18 19  1  0
 19 20  1  0
 19 21  2  0
 21 22  1  0
 22 23  2  0
 11  4  1  0
 23 13  1  0
  9  7  1  0
 23 17  1  0
M  END
>  <ref_pdb>  (163) 
x0554_0A

>  <ref_mols>  (163) 
x0554_0A,x0566_0A

>  <original SMILES>  (163) 
O=C(Cc1cc(C2CC2)no1)Nc1cccc2nc(Cl)ccc12

>  <IC50 (nM)>  (163) 
1135.5859223021341

>  <CNNaffinity>  (163) 
5.94478

>  <rationale>  (163) 
-1

$$$$
PV_002124383039
     RDKit          3D

 22 24  0  0  0  0  0  0  0  0999 V2000
   10.9647   16.4897   17.1306 C   0  0  0  0  0  0  0  0  0  0  0  0
   10.2689   15.5731   18.1426 C   0  0  0  0  0  0  0  0  0  0  0  0
   11.1568   14.9718   19.1377 N   0  0  0  0  0  0  0  0  0  0  0  0
   11.3594   15.3456   20.4269 C   0  0  0  0  0  0  0  0  0  0  0  0
   12.2201   14.4037   20.9240 C   0  0  0  0  0  0  0  0  0  0  0  0
   12.6821   14.1781   22.3181 C   0  0  0  0  0  0  0  0  0  0  0  0
   11.4646   13.8793   23.1770 C   0  0  0  0  0  0  0  0  0  0  0  0
   11.0446   14.6760   23.9902 O   0  0  0  0  0  0  0  0  0  0  0  0
   10.8844   12.6674   22.9045 N   0  0  0  0  0  0  0  0  0  0  0  0
    9.8885   12.0100   23.6481 C   0  0  0  0  0  0  0  0  0  0  0  0
    8.9839   12.7305   24.4045 C   0  0  0  0  0  0  0  0  0  0  0  0
    7.9691   12.0810   25.1557 C   0  0  0  0  0  0  0  0  0  0  0  0
    7.8760   10.7116   25.1459 C   0  0  0  0  0  0  0  0  0  0  0  0
    8.7882    9.9440   24.3752 C   0  0  0  0  0  0  0  0  0  0  0  0
    8.5784    8.5924   24.3943 N   0  0  0  0  0  0  0  0  0  0  0  0
    9.3570    7.8535   23.6760 C   0  0  0  0  0  0  0  0  0  0  0  0
    8.9365    6.1611   23.5355 Cl  0  0  0  0  0  0  0  0  0  0  0  0
   10.4932    8.3274   22.9635 C   0  0  0  0  0  0  0  0  0  0  0  0
   10.7181    9.6834   22.9258 C   0  0  0  0  0  0  0  0  0  0  0  0
    9.8285   10.5705   23.6184 C   0  0  0  0  0  0  0  0  0  0  0  0
   12.4932   13.5196   19.9361 N   0  0  0  0  0  0  0  0  0  0  0  0
   11.8518   13.8648   18.8612 N   0  0  0  0  0  0  0  0  0  0  0  0
  1  2  1  0
  2  3  1  0
  3  4  1  0
  4  5  2  0
  5  6  1  0
  6  7  1  0
  7  8  2  0
  7  9  1  0
  9 10  1  0
 10 11  2  0
 11 12  1  0
 12 13  2  0
 13 14  1  0
 14 15  2  0
 15 16  1  0
 16 17  1  0
 16 18  2  0
 18 19  1  0
 19 20  2  0
  5 21  1  0
 21 22  2  0
 22  3  1  0
 20 10  1  0
 20 14  1  0
M  END
>  <ref_pdb>  (164) 
x0554_0A

>  <ref_mols>  (164) 
x0554_0A,x0566_0A

>  <original SMILES>  (164) 
CCn1cc(CC(=O)Nc2cccc3nc(Cl)ccc23)nn1

>  <IC50 (nM)>  (164) 
1138.1250965990464

>  <CNNaffinity>  (164) 
5.94381

>  <rationale>  (164) 
-1

$$$$
PV_002290349863
     RDKit          3D

 27 30  0  0  0  0  0  0  0  0999 V2000
   12.7100   13.0245   22.0087 C   0  0  0  0  0  0  0  0  0  0  0  0
   11.9105   14.1481   22.2719 C   0  0  2  0  0  0  0  0  0  0  0  0
   10.7949   13.8015   23.4289 C   0  0  0  0  0  0  0  0  0  0  0  0
   10.7272   14.4701   24.4374 O   0  0  0  0  0  0  0  0  0  0  0  0
   10.0616   12.6787   23.1701 N   0  0  0  0  0  0  0  0  0  0  0  0
    9.1879   11.9514   24.0240 C   0  0  0  0  0  0  0  0  0  0  0  0
    8.5455   12.6021   25.0747 C   0  0  0  0  0  0  0  0  0  0  0  0
    7.7564   11.8537   25.9794 C   0  0  0  0  0  0  0  0  0  0  0  0
    7.7672   10.4722   25.9397 C   0  0  0  0  0  0  0  0  0  0  0  0
    8.5679    9.7816   24.9893 C   0  0  0  0  0  0  0  0  0  0  0  0
    8.4724    8.4148   24.9754 N   0  0  0  0  0  0  0  0  0  0  0  0
    9.1364    7.7819   24.0567 C   0  0  0  0  0  0  0  0  0  0  0  0
    8.7829    6.0795   23.8484 Cl  0  0  0  0  0  0  0  0  0  0  0  0
   10.0629    8.3770   23.1631 C   0  0  0  0  0  0  0  0  0  0  0  0
   10.1919    9.7494   23.1980 C   0  0  0  0  0  0  0  0  0  0  0  0
    9.3760   10.5111   24.0716 C   0  0  0  0  0  0  0  0  0  0  0  0
   11.4543   14.8082   20.9685 N   0  0  0  0  0  0  0  0  0  0  0  0
   12.3951   15.3875   20.0992 C   0  0  0  0  0  0  0  0  0  0  0  0
   13.4940   15.7504   20.4397 O   0  0  0  0  0  0  0  0  0  0  0  0
   11.7411   15.4795   18.7564 C   0  0  0  0  0  0  0  0  0  0  0  0
   12.2127   15.9211   17.5175 C   0  0  0  0  0  0  0  0  0  0  0  0
   11.3255   15.8981   16.4347 C   0  0  0  0  0  0  0  0  0  0  0  0
    9.9926   15.4687   16.5915 C   0  0  0  0  0  0  0  0  0  0  0  0
    9.5360   15.0040   17.8282 C   0  0  0  0  0  0  0  0  0  0  0  0
   10.4435   14.9957   18.8894 C   0  0  0  0  0  0  0  0  0  0  0  0
   10.2774   14.5131   20.2846 C   0  0  0  0  0  0  0  0  0  0  0  0
    9.3273   13.9533   20.7833 O   0  0  0  0  0  0  0  0  0  0  0  0
  2  1  1  6
  2  3  1  0
  3  4  2  0
  3  5  1  0
  5  6  1  0
  6  7  2  0
  7  8  1  0
  8  9  2  0
  9 10  1  0
 10 11  2  0
 11 12  1  0
 12 13  1  0
 12 14  2  0
 14 15  1  0
 15 16  2  0
  2 17  1  0
 17 18  1  0
 18 19  2  0
 18 20  1  0
 20 21  2  0
 21 22  1  0
 22 23  2  0
 23 24  1  0
 24 25  2  0
 25 26  1  0
 26 27  2  0
 16  6  1  0
 26 17  1  0
 16 10  1  0
 25 20  1  0
M  END
>  <ref_pdb>  (165) 
x0554_0A

>  <ref_mols>  (165) 
x0554_0A,x0566_0A

>  <original SMILES>  (165) 
C[C@H](C(=O)Nc1cccc2nc(Cl)ccc12)N1C(=O)c2ccccc2C1=O

>  <IC50 (nM)>  (165) 
1138.8066643656625

>  <CNNaffinity>  (165) 
5.94355

>  <rationale>  (165) 
-1

$$$$
PV_006941129606
     RDKit          3D

 23 26  0  0  0  0  0  0  0  0999 V2000
    9.6068   14.8096   23.0758 O   0  0  0  0  0  0  0  0  0  0  0  0
   10.3392   13.9326   22.6386 C   0  0  0  0  0  0  0  0  0  0  0  0
   10.0426   12.5884   22.7129 N   0  0  0  0  0  0  0  0  0  0  0  0
    9.2151   11.9581   23.6247 C   0  0  0  0  0  0  0  0  0  0  0  0
    8.3551   12.6808   24.4532 C   0  0  0  0  0  0  0  0  0  0  0  0
    7.5657   12.0242   25.4035 C   0  0  0  0  0  0  0  0  0  0  0  0
    7.6388   10.6315   25.5045 C   0  0  0  0  0  0  0  0  0  0  0  0
    8.4757    9.8977   24.6676 C   0  0  0  0  0  0  0  0  0  0  0  0
    8.4372    8.5628   24.7835 N   0  0  0  0  0  0  0  0  0  0  0  0
    9.1381    7.8204   23.9210 C   0  0  0  0  0  0  0  0  0  0  0  0
    8.8287    6.1015   23.8330 Cl  0  0  0  0  0  0  0  0  0  0  0  0
   10.0242    8.3981   23.0112 C   0  0  0  0  0  0  0  0  0  0  0  0
   10.1141    9.7829   22.9017 C   0  0  0  0  0  0  0  0  0  0  0  0
    9.2812   10.5596   23.7194 C   0  0  0  0  0  0  0  0  0  0  0  0
   11.6953   14.2485   22.0178 C   0  0  0  0  0  0  0  0  0  0  0  0
   11.6246   14.9446   20.7390 N   0  0  0  0  0  0  0  0  0  0  0  0
   11.6084   14.3093   19.5265 C   0  0  0  0  0  0  0  0  0  0  0  0
   11.2567   15.2639   18.6389 C   0  0  0  0  0  0  0  0  0  0  0  0
   10.9957   14.9655   16.7686 Br  0  0  0  0  0  0  0  0  0  0  0  0
   11.0741   16.4566   19.3200 N   0  0  0  0  0  0  0  0  0  0  0  0
   11.3034   16.2534   20.5767 N   0  0  0  0  0  0  0  0  0  0  0  0
   12.7119   13.1043   22.1205 C   0  0  0  0  0  0  0  0  0  0  0  0
   12.9429   14.3995   22.8951 C   0  0  0  0  0  0  0  0  0  0  0  0
  1  2  2  0
  2  3  1  0
  3  4  1  0
  4  5  2  0
  5  6  1  0
  6  7  2  0
  7  8  1  0
  8  9  2  0
  9 10  1  0
 10 11  1  0
 10 12  2  0
 12 13  1  0
 13 14  2  0
  2 15  1  0
 15 16  1  0
 16 17  1  0
 17 18  2  0
 18 19  1  0
 18 20  1  0
 20 21  2  0
 15 22  1  0
 22 23  1  0
 14  4  1  0
 23 15  1  0
 14  8  1  0
 21 16  1  0
M  END
>  <ref_pdb>  (166) 
x0554_0A

>  <ref_mols>  (166) 
x0554_0A,x0566_0A

>  <original SMILES>  (166) 
O=C(Nc1cccc2nc(Cl)ccc12)C1(n2cc(Br)nn2)CC1

>  <IC50 (nM)>  (166) 
1142.6678282093965

>  <CNNaffinity>  (166) 
5.94208

>  <rationale>  (166) 
-1

$$$$
PV_007125928667
     RDKit          3D

 22 24  0  0  0  0  0  0  0  0999 V2000
   13.3322   15.1863   22.4609 C   0  0  0  0  0  0  0  0  0  0  0  0
   12.4234   14.0764   21.9397 C   0  0  1  0  0  0  0  0  0  0  0  0
   11.1553   13.8714   22.7851 C   0  0  0  0  0  0  0  0  0  0  0  0
   10.6449   14.7708   23.4276 O   0  0  0  0  0  0  0  0  0  0  0  0
   10.6470   12.6025   22.7122 N   0  0  0  0  0  0  0  0  0  0  0  0
    9.7612   11.9707   23.5977 C   0  0  0  0  0  0  0  0  0  0  0  0
    8.9150   12.6841   24.4213 C   0  0  0  0  0  0  0  0  0  0  0  0
    7.9708   12.0119   25.2426 C   0  0  0  0  0  0  0  0  0  0  0  0
    7.8901   10.6389   25.2237 C   0  0  0  0  0  0  0  0  0  0  0  0
    8.7634    9.8828   24.3962 C   0  0  0  0  0  0  0  0  0  0  0  0
    8.5797    8.5266   24.4004 N   0  0  0  0  0  0  0  0  0  0  0  0
    9.3720    7.8093   23.6726 C   0  0  0  0  0  0  0  0  0  0  0  0
    8.9724    6.1150   23.4993 Cl  0  0  0  0  0  0  0  0  0  0  0  0
   10.5104    8.3085   22.9806 C   0  0  0  0  0  0  0  0  0  0  0  0
   10.6893    9.6683   22.9350 C   0  0  0  0  0  0  0  0  0  0  0  0
    9.7607   10.5305   23.6079 C   0  0  0  0  0  0  0  0  0  0  0  0
   12.0174   14.3387   20.5674 N   0  0  0  0  0  0  0  0  0  0  0  0
   11.1131   15.2439   20.1363 C   0  0  0  0  0  0  0  0  0  0  0  0
   11.1917   15.2302   18.7655 C   0  0  0  0  0  0  0  0  0  0  0  0
   10.2672   16.1598   17.6507 Cl  0  0  0  0  0  0  0  0  0  0  0  0
   12.1866   14.2839   18.4621 C   0  0  0  0  0  0  0  0  0  0  0  0
   12.6917   13.7631   19.5689 N   0  0  0  0  0  0  0  0  0  0  0  0
  2  1  1  1
  2  3  1  0
  3  4  2  0
  3  5  1  0
  5  6  1  0
  6  7  2  0
  7  8  1  0
  8  9  2  0
  9 10  1  0
 10 11  2  0
 11 12  1  0
 12 13  1  0
 12 14  2  0
 14 15  1  0
 15 16  2  0
  2 17  1  0
 17 18  1  0
 18 19  2  0
 19 20  1  0
 19 21  1  0
 21 22  2  0
 16  6  1  0
 22 17  1  0
 16 10  1  0
M  END
>  <ref_pdb>  (167) 
x0554_0A

>  <ref_mols>  (167) 
x0554_0A,x0566_0A

>  <original SMILES>  (167) 
C[C@@H](C(=O)Nc1cccc2nc(Cl)ccc12)n1cc(Cl)cn1

>  <IC50 (nM)>  (167) 
1144.6164944483012

>  <CNNaffinity>  (167) 
5.94134

>  <rationale>  (167) 
-1

$$$$
PV_002425480654
     RDKit          3D

 25 27  0  0  0  0  0  0  0  0999 V2000
    9.8574   13.3937   16.0340 C   0  0  0  0  0  0  0  0  0  0  0  0
   10.5414   14.3822   16.8516 N   0  0  0  0  0  0  0  0  0  0  0  0
   11.1074   15.5488   16.4355 C   0  0  0  0  0  0  0  0  0  0  0  0
   11.7040   16.1925   17.4052 N   0  0  0  0  0  0  0  0  0  0  0  0
   11.5273   15.3888   18.5318 C   0  0  0  0  0  0  0  0  0  0  0  0
   11.9873   15.6724   20.3060 S   0  0  0  0  0  6  0  0  0  0  0  0
   13.3134   16.2434   20.4678 O   0  0  0  0  0  0  0  0  0  0  0  0
   10.8423   16.2027   21.0183 O   0  0  0  0  0  0  0  0  0  0  0  0
   12.3324   14.0890   20.8507 N   0  0  0  0  0  0  0  0  0  0  0  0
   12.5533   13.9850   22.3459 C   0  0  0  0  0  0  0  0  0  0  0  0
   11.4104   13.5802   23.3204 C   0  0  0  0  0  0  0  0  0  0  0  0
   11.3134   14.0921   24.4186 O   0  0  0  0  0  0  0  0  0  0  0  0
   10.6186   12.5554   22.8833 N   0  0  0  0  0  0  0  0  0  0  0  0
    9.7108   11.8681   23.7108 C   0  0  0  0  0  0  0  0  0  0  0  0
    8.8537   12.5867   24.5117 C   0  0  0  0  0  0  0  0  0  0  0  0
    7.8802   11.9270   25.3044 C   0  0  0  0  0  0  0  0  0  0  0  0
    7.7988   10.5526   25.2877 C   0  0  0  0  0  0  0  0  0  0  0  0
    8.7005    9.7894   24.4965 C   0  0  0  0  0  0  0  0  0  0  0  0
    8.5430    8.4303   24.5200 N   0  0  0  0  0  0  0  0  0  0  0  0
    9.3215    7.7249   23.7670 C   0  0  0  0  0  0  0  0  0  0  0  0
    8.9371    6.0255   23.6011 Cl  0  0  0  0  0  0  0  0  0  0  0  0
   10.4325    8.2358   23.0340 C   0  0  0  0  0  0  0  0  0  0  0  0
   10.6237    9.5957   23.0161 C   0  0  0  0  0  0  0  0  0  0  0  0
    9.7025   10.4376   23.7132 C   0  0  0  0  0  0  0  0  0  0  0  0
   10.8241   14.2670   18.1867 C   0  0  0  0  0  0  0  0  0  0  0  0
  1  2  1  0
  2  3  1  0
  3  4  2  0
  4  5  1  0
  5  6  1  0
  6  7  2  0
  6  8  2  0
  6  9  1  0
  9 10  1  0
 10 11  1  0
 11 12  2  0
 11 13  1  0
 13 14  1  0
 14 15  2  0
 15 16  1  0
 16 17  2  0
 17 18  1  0
 18 19  2  0
 19 20  1  0
 20 21  1  0
 20 22  2  0
 22 23  1  0
 23 24  2  0
  5 25  2  0
 25  2  1  0
 24 14  1  0
 24 18  1  0
M  END
>  <ref_pdb>  (168) 
x0554_0A

>  <ref_mols>  (168) 
x0554_0A,x0566_0A

>  <original SMILES>  (168) 
Cn1cnc(S(=O)(=O)NCC(=O)Nc2cccc3nc(Cl)ccc23)c1

>  <IC50 (nM)>  (168) 
1146.0933694714813

>  <CNNaffinity>  (168) 
5.94078

>  <rationale>  (168) 
-1

$$$$
PV_002195381078
     RDKit          3D

 26 28  0  0  0  0  0  0  0  0999 V2000
    8.5465   17.8244   17.1183 C   0  0  0  0  0  0  0  0  0  0  0  0
   10.0274   17.8792   16.8812 C   0  0  0  0  0  0  0  0  0  0  0  0
   10.7905   17.1613   17.8663 O   0  0  0  0  0  0  0  0  0  0  0  0
   10.9497   15.8383   17.6521 C   0  0  0  0  0  0  0  0  0  0  0  0
   10.5343   15.2703   16.6627 O   0  0  0  0  0  0  0  0  0  0  0  0
   11.6588   15.1543   18.7004 C   0  0  0  0  0  0  0  0  0  0  0  0
   12.2367   13.9171   18.6195 C   0  0  0  0  0  0  0  0  0  0  0  0
   12.5495   13.5584   19.8675 N   0  0  0  0  0  0  0  0  0  0  0  0
   12.2502   14.5610   20.7554 N   0  0  0  0  0  0  0  0  0  0  0  0
   12.4834   14.3557   22.1954 C   0  0  0  0  0  0  0  0  0  0  0  0
   11.2810   13.9502   23.0715 C   0  0  0  0  0  0  0  0  0  0  0  0
   10.8357   14.7405   23.8833 O   0  0  0  0  0  0  0  0  0  0  0  0
   10.8177   12.6713   22.8984 N   0  0  0  0  0  0  0  0  0  0  0  0
    9.8394   12.0064   23.6702 C   0  0  0  0  0  0  0  0  0  0  0  0
    8.9403   12.7191   24.4379 C   0  0  0  0  0  0  0  0  0  0  0  0
    7.9504   12.0608   25.2132 C   0  0  0  0  0  0  0  0  0  0  0  0
    7.8590   10.6912   25.1896 C   0  0  0  0  0  0  0  0  0  0  0  0
    8.7590    9.9297   24.3986 C   0  0  0  0  0  0  0  0  0  0  0  0
    8.5615    8.5762   24.4072 N   0  0  0  0  0  0  0  0  0  0  0  0
    9.3511    7.8480   23.6894 C   0  0  0  0  0  0  0  0  0  0  0  0
    8.9560    6.1494   23.5461 Cl  0  0  0  0  0  0  0  0  0  0  0  0
   10.4882    8.3348   22.9869 C   0  0  0  0  0  0  0  0  0  0  0  0
   10.6924    9.6925   22.9501 C   0  0  0  0  0  0  0  0  0  0  0  0
    9.7923   10.5666   23.6420 C   0  0  0  0  0  0  0  0  0  0  0  0
   11.6101   15.5933   20.0559 C   0  0  0  0  0  0  0  0  0  0  0  0
   11.0792   16.6294   20.5864 N   0  0  0  0  0  0  0  0  0  0  0  0
  1  2  1  0
  2  3  1  0
  3  4  1  0
  4  5  2  0
  4  6  1  0
  6  7  2  0
  7  8  1  0
  8  9  1  0
  9 10  1  0
 10 11  1  0
 11 12  2  0
 11 13  1  0
 13 14  1  0
 14 15  2  0
 15 16  1  0
 16 17  2  0
 17 18  1  0
 18 19  2  0
 19 20  1  0
 20 21  1  0
 20 22  2  0
 22 23  1  0
 23 24  2  0
  9 25  1  0
 25 26  2  3
 25  6  1  0
 24 14  1  0
 24 18  1  0
M  END
>  <ref_pdb>  (169) 
x0554_0A

>  <ref_mols>  (169) 
x0554_0A,x0566_0A

>  <original SMILES>  (169) 
CCOC(=O)c1c[nH]n(CC(=O)Nc2cccc3nc(Cl)ccc23)c1=N

>  <IC50 (nM)>  (169) 
1153.506377529749

>  <CNNaffinity>  (169) 
5.93798

>  <rationale>  (169) 
-1

$$$$
PV_002405193627
     RDKit          3D

 23 26  0  0  0  0  0  0  0  0999 V2000
    9.9958   14.4477   22.7533 O   0  0  0  0  0  0  0  0  0  0  0  0
   10.6746   13.5042   22.4077 C   0  0  0  0  0  0  0  0  0  0  0  0
   10.3475   12.1944   22.6501 N   0  0  0  0  0  0  0  0  0  0  0  0
    9.5103   11.6370   23.6176 C   0  0  0  0  0  0  0  0  0  0  0  0
    8.6496   12.3845   24.3931 C   0  0  0  0  0  0  0  0  0  0  0  0
    7.7639   11.7448   25.3067 C   0  0  0  0  0  0  0  0  0  0  0  0
    7.7631   10.3733   25.4232 C   0  0  0  0  0  0  0  0  0  0  0  0
    8.6455    9.5870   24.6355 C   0  0  0  0  0  0  0  0  0  0  0  0
    8.5075    8.2280   24.7410 N   0  0  0  0  0  0  0  0  0  0  0  0
    9.2245    7.4950   23.9556 C   0  0  0  0  0  0  0  0  0  0  0  0
    8.8139    5.7974   23.8487 Cl  0  0  0  0  0  0  0  0  0  0  0  0
   10.3076    7.9706   23.1630 C   0  0  0  0  0  0  0  0  0  0  0  0
   10.4812    9.3247   23.0690 C   0  0  0  0  0  0  0  0  0  0  0  0
    9.5788   10.2053   23.7546 C   0  0  0  0  0  0  0  0  0  0  0  0
   12.0302   13.6672   21.6979 C   0  0  2  0  0  0  0  0  0  0  0  0
   13.0085   14.4273   22.7191 C   0  0  0  0  0  0  0  0  0  0  0  0
   13.7097   15.5418   22.1722 C   0  0  0  0  0  0  0  0  0  0  0  0
   13.1627   16.3913   21.1305 C   0  0  0  0  0  0  0  0  0  0  0  0
   12.4641   15.5487   20.0811 C   0  0  0  0  0  0  0  0  0  0  0  0
   11.9261   14.3165   20.3356 C   0  0  0  0  0  0  0  0  0  0  0  0
   11.3811   13.9104   19.0880 C   0  0  0  0  0  0  0  0  0  0  0  0
   11.5811   14.8290   18.1475 N   0  0  0  0  0  0  0  0  0  0  0  0
   12.2484   15.8128   18.7803 N   0  0  0  0  0  0  0  0  0  0  0  0
  1  2  2  0
  2  3  1  0
  3  4  1  0
  4  5  2  0
  5  6  1  0
  6  7  2  0
  7  8  1  0
  8  9  2  0
  9 10  1  0
 10 11  1  0
 10 12  2  0
 12 13  1  0
 13 14  2  0
 15  2  1  1
 15 16  1  0
 16 17  1  0
 17 18  1  0
 18 19  1  0
 19 20  2  0
 20 21  1  0
 21 22  2  0
 22 23  1  0
 14  4  1  0
 20 15  1  0
 14  8  1  0
 23 19  1  0
M  END
>  <ref_pdb>  (170) 
x0554_0A

>  <ref_mols>  (170) 
x0554_0A,x0566_0A

>  <original SMILES>  (170) 
O=C(Nc1cccc2nc(Cl)ccc12)[C@@H]1CCCc2[nH]ncc21

>  <IC50 (nM)>  (170) 
1154.25031036467

>  <CNNaffinity>  (170) 
5.9377

>  <rationale>  (170) 
-1

$$$$
PV_002324899962
     RDKit          3D

 25 27  0  0  0  0  0  0  0  0999 V2000
    9.0595   17.8443   20.0711 C   0  0  0  0  0  0  0  0  0  0  0  0
    8.9767   16.3227   19.9958 C   0  0  0  0  0  0  0  0  0  0  0  0
    9.3559   15.7601   18.6126 C   0  0  0  0  0  0  0  0  0  0  0  0
   10.8697   15.5480   18.4031 C   0  0  0  0  0  0  0  0  0  0  0  0
   11.3319   14.5284   19.4302 C   0  0  0  0  0  0  0  0  0  0  0  0
   11.0062   13.3638   19.2780 O   0  0  0  0  0  0  0  0  0  0  0  0
   11.9510   14.9412   20.5938 N   0  0  0  0  0  0  0  0  0  0  0  0
   12.5649   16.2293   20.7759 C   0  0  0  0  0  0  0  0  0  0  0  0
   13.9980   15.9259   21.8118 S   0  0  0  0  0  0  0  0  0  0  0  0
   13.1164   14.6509   22.7156 C   0  0  0  0  0  0  0  0  0  0  0  0
   12.1058   14.0210   21.7352 C   0  0  1  0  0  0  0  0  0  0  0  0
   10.7961   13.7653   22.5280 C   0  0  0  0  0  0  0  0  0  0  0  0
   10.2319   14.6654   23.1280 O   0  0  0  0  0  0  0  0  0  0  0  0
   10.4004   12.4605   22.5542 N   0  0  0  0  0  0  0  0  0  0  0  0
    9.5927   11.8341   23.5139 C   0  0  0  0  0  0  0  0  0  0  0  0
    8.7647   12.5612   24.3463 C   0  0  0  0  0  0  0  0  0  0  0  0
    7.8937   11.9011   25.2517 C   0  0  0  0  0  0  0  0  0  0  0  0
    7.8553   10.5281   25.3006 C   0  0  0  0  0  0  0  0  0  0  0  0
    8.7097    9.7655   24.4594 C   0  0  0  0  0  0  0  0  0  0  0  0
    8.5551    8.4081   24.5141 N   0  0  0  0  0  0  0  0  0  0  0  0
    9.3174    7.6863   23.7611 C   0  0  0  0  0  0  0  0  0  0  0  0
    8.9219    5.9868   23.6264 Cl  0  0  0  0  0  0  0  0  0  0  0  0
   10.4252    8.1827   23.0176 C   0  0  0  0  0  0  0  0  0  0  0  0
   10.5872    9.5426   22.9356 C   0  0  0  0  0  0  0  0  0  0  0  0
    9.6547   10.4034   23.6026 C   0  0  0  0  0  0  0  0  0  0  0  0
  1  2  1  0
  2  3  1  0
  3  4  1  0
  4  5  1  0
  5  6  2  0
  5  7  1  0
  7  8  1  0
  8  9  1  0
  9 10  1  0
 10 11  1  0
 11 12  1  1
 12 13  2  0
 12 14  1  0
 14 15  1  0
 15 16  2  0
 16 17  1  0
 17 18  2  0
 18 19  1  0
 19 20  2  0
 20 21  1  0
 21 22  1  0
 21 23  2  0
 23 24  1  0
 24 25  2  0
 11  7  1  0
 25 15  1  0
 25 19  1  0
M  END
>  <ref_pdb>  (171) 
x0554_0A

>  <ref_mols>  (171) 
x0554_0A,x0566_0A

>  <original SMILES>  (171) 
CCCCC(=O)N1CSC[C@H]1C(=O)Nc1cccc2nc(Cl)ccc12

>  <IC50 (nM)>  (171) 
1157.9505144160423

>  <CNNaffinity>  (171) 
5.93631

>  <rationale>  (171) 
-1

$$$$
Z3091962341
     RDKit          3D

 24 27  0  0  0  0  0  0  0  0999 V2000
   11.0650   14.5797   23.5844 O   0  0  0  0  0  0  0  0  0  0  0  0
   11.4060   13.7010   22.8156 C   0  0  0  0  0  0  0  0  0  0  0  0
   12.5934   13.8397   21.8600 C   0  0  0  0  0  0  0  0  0  0  0  0
   12.1895   14.2395   20.4571 C   0  0  0  0  0  0  0  0  0  0  0  0
   11.3382   15.2696   20.0853 C   0  0  0  0  0  0  0  0  0  0  0  0
   10.7083   16.4049   20.8618 C   0  0  0  0  0  0  0  0  0  0  0  0
    9.6967   17.2381   20.0347 C   0  0  0  0  0  0  0  0  0  0  0  0
   10.0756   17.3448   18.5441 C   0  0  0  0  0  0  0  0  0  0  0  0
   10.2984   15.9606   17.9201 C   0  0  0  0  0  0  0  0  0  0  0  0
   11.2244   15.1921   18.7341 N   0  0  0  0  0  0  0  0  0  0  0  0
   11.9408   14.2042   18.1974 N   0  0  0  0  0  0  0  0  0  0  0  0
   12.5312   13.6264   19.2353 C   0  0  0  0  0  0  0  0  0  0  0  0
   10.7665   12.4988   22.7158 N   0  0  0  0  0  0  0  0  0  0  0  0
    9.8518   11.9218   23.6072 C   0  0  0  0  0  0  0  0  0  0  0  0
    9.0190   12.6856   24.3928 C   0  0  0  0  0  0  0  0  0  0  0  0
    8.0273   12.0683   25.2044 C   0  0  0  0  0  0  0  0  0  0  0  0
    7.8944   10.6992   25.2127 C   0  0  0  0  0  0  0  0  0  0  0  0
    8.7621    9.8899   24.4308 C   0  0  0  0  0  0  0  0  0  0  0  0
    8.5414    8.5389   24.4647 N   0  0  0  0  0  0  0  0  0  0  0  0
    9.3073    7.7869   23.7442 C   0  0  0  0  0  0  0  0  0  0  0  0
    8.8793    6.0962   23.6124 Cl  0  0  0  0  0  0  0  0  0  0  0  0
   10.4501    8.2379   23.0241 C   0  0  0  0  0  0  0  0  0  0  0  0
   10.6833    9.5877   22.9742 C   0  0  0  0  0  0  0  0  0  0  0  0
    9.7921   10.4862   23.6435 C   0  0  0  0  0  0  0  0  0  0  0  0
  1  2  2  0
  2  3  1  0
  3  4  1  0
  4  5  2  0
  5  6  1  0
  6  7  1  0
  7  8  1  0
  8  9  1  0
  9 10  1  0
 10 11  1  0
 11 12  2  0
  2 13  1  0
 13 14  1  0
 14 15  2  0
 15 16  1  0
 16 17  2  0
 17 18  1  0
 18 19  2  0
 19 20  1  0
 20 21  1  0
 20 22  2  0
 22 23  1  0
 23 24  2  0
 12  4  1  0
 24 14  1  0
 10  5  1  0
 24 18  1  0
M  END
>  <ref_pdb>  (172) 
x0554_0A

>  <ref_mols>  (172) 
x0554_0A,x0566_0A

>  <original SMILES>  (172) 
O=C(Cc1cnn2c1CCCC2)Nc1cccc2nc(Cl)ccc12

>  <IC50 (nM)>  (172) 
1159.444594049801

>  <CNNaffinity>  (172) 
5.93575

>  <rationale>  (172) 
-1

$$$$
PV_002297598000
     RDKit          3D

 25 27  0  0  0  0  0  0  0  0999 V2000
    9.6789   16.0844   16.7269 C   0  0  0  0  0  0  0  0  0  0  0  0
   10.2188   16.3390   18.1360 C   0  0  0  0  0  0  0  0  0  0  0  0
   11.2506   15.0472   18.8148 S   0  0  0  0  0  6  0  0  0  0  0  0
   12.4886   15.0198   18.0610 O   0  0  0  0  0  0  0  0  0  0  0  0
   10.4344   13.8599   18.9971 O   0  0  0  0  0  0  0  0  0  0  0  0
   11.5812   15.7191   20.3152 N   0  0  0  0  0  0  0  0  0  0  0  0
   13.0235   15.7755   20.7112 C   0  0  0  0  0  0  0  0  0  0  0  0
   13.3419   15.1491   21.9882 C   0  0  0  0  0  0  0  0  0  0  0  0
   12.4713   14.3279   22.7817 C   0  0  0  0  0  0  0  0  0  0  0  0
   11.0751   14.0972   22.0896 C   0  0  1  0  0  0  0  0  0  0  0  0
   10.0287   13.6502   23.0938 C   0  0  0  0  0  0  0  0  0  0  0  0
    9.3060   14.4503   23.6558 O   0  0  0  0  0  0  0  0  0  0  0  0
   10.0018   12.2976   23.3254 N   0  0  0  0  0  0  0  0  0  0  0  0
    9.1936   11.5459   24.1902 C   0  0  0  0  0  0  0  0  0  0  0  0
    8.2788   12.1390   25.0374 C   0  0  0  0  0  0  0  0  0  0  0  0
    7.4704   11.3542   25.9034 C   0  0  0  0  0  0  0  0  0  0  0  0
    7.5871    9.9849   25.9082 C   0  0  0  0  0  0  0  0  0  0  0  0
    8.4884    9.3482   25.0141 C   0  0  0  0  0  0  0  0  0  0  0  0
    8.4342    7.9789   25.0021 N   0  0  0  0  0  0  0  0  0  0  0  0
    9.1009    7.3682   24.0809 C   0  0  0  0  0  0  0  0  0  0  0  0
    8.7918    5.6600   23.8527 Cl  0  0  0  0  0  0  0  0  0  0  0  0
   10.0685    7.9853   23.2411 C   0  0  0  0  0  0  0  0  0  0  0  0
   10.1911    9.3498   23.2871 C   0  0  0  0  0  0  0  0  0  0  0  0
    9.3317   10.1104   24.1483 C   0  0  0  0  0  0  0  0  0  0  0  0
   10.6523   15.4013   21.4046 C   0  0  0  0  0  0  0  0  0  0  0  0
  1  2  1  0
  2  3  1  0
  3  4  2  0
  3  5  2  0
  3  6  1  0
  6  7  1  0
  7  8  1  0
  8  9  1  0
  9 10  1  0
 10 11  1  1
 11 12  2  0
 11 13  1  0
 13 14  1  0
 14 15  2  0
 15 16  1  0
 16 17  2  0
 17 18  1  0
 18 19  2  0
 19 20  1  0
 20 21  1  0
 20 22  2  0
 22 23  1  0
 23 24  2  0
 10 25  1  0
 25  6  1  0
 24 14  1  0
 24 18  1  0
M  END
>  <ref_pdb>  (173) 
x0554_0A

>  <ref_mols>  (173) 
x0554_0A,x0566_0A

>  <original SMILES>  (173) 
CCS(=O)(=O)N1CCC[C@@H](C(=O)Nc2cccc3nc(Cl)ccc23)C1

>  <IC50 (nM)>  (173) 
1163.8044139363546

>  <CNNaffinity>  (173) 
5.93412

>  <rationale>  (173) 
-1

$$$$
PV_006881652306
     RDKit          3D

 28 31  0  0  0  0  0  0  0  0999 V2000
   13.4287   14.8664   22.4306 C   0  0  0  0  0  0  0  0  0  0  0  0
   12.4258   13.8137   21.9465 C   0  0  2  0  0  0  0  0  0  0  0  0
   11.8445   14.1690   20.5460 C   0  0  0  0  0  0  0  0  0  0  0  0
   10.9013   15.3323   20.5786 C   0  0  0  0  0  0  0  0  0  0  0  0
   11.4314   16.5989   20.8090 C   0  0  0  0  0  0  0  0  0  0  0  0
   10.6322   17.7229   20.7633 C   0  0  0  0  0  0  0  0  0  0  0  0
    9.2821   17.6048   20.4103 C   0  0  0  0  0  0  0  0  0  0  0  0
    8.6095   18.8536   20.0032 C   0  0  0  0  0  0  0  0  0  0  0  0
    7.9595   19.0479   18.8581 N   0  0  0  0  0  0  0  0  0  0  0  0
    7.6851   20.3360   18.9426 N   0  0  0  0  0  0  0  0  0  0  0  0
    8.1451   20.9289   20.0245 N   0  0  0  0  0  0  0  0  0  0  0  0
    8.7620   20.0111   20.6975 N   0  0  0  0  0  0  0  0  0  0  0  0
    8.6958   16.3269   20.3676 C   0  0  0  0  0  0  0  0  0  0  0  0
    9.5140   15.1985   20.4480 C   0  0  0  0  0  0  0  0  0  0  0  0
   11.2848   13.6341   22.9692 C   0  0  0  0  0  0  0  0  0  0  0  0
   11.0070   14.4453   23.8303 O   0  0  0  0  0  0  0  0  0  0  0  0
   10.5777   12.4752   22.7820 N   0  0  0  0  0  0  0  0  0  0  0  0
    9.7019   11.8548   23.6763 C   0  0  0  0  0  0  0  0  0  0  0  0
    8.8421   12.5822   24.4720 C   0  0  0  0  0  0  0  0  0  0  0  0
    7.8826   11.9241   25.2882 C   0  0  0  0  0  0  0  0  0  0  0  0
    7.8125   10.5491   25.2972 C   0  0  0  0  0  0  0  0  0  0  0  0
    8.7044    9.7821   24.4992 C   0  0  0  0  0  0  0  0  0  0  0  0
    8.5371    8.4244   24.5302 N   0  0  0  0  0  0  0  0  0  0  0  0
    9.3029    7.7066   23.7752 C   0  0  0  0  0  0  0  0  0  0  0  0
    8.9030    6.0121   23.6125 Cl  0  0  0  0  0  0  0  0  0  0  0  0
   10.4171    8.2014   23.0412 C   0  0  0  0  0  0  0  0  0  0  0  0
   10.6075    9.5574   23.0047 C   0  0  0  0  0  0  0  0  0  0  0  0
    9.6966   10.4192   23.6987 C   0  0  0  0  0  0  0  0  0  0  0  0
  2  1  1  1
  2  3  1  0
  3  4  1  0
  4  5  2  0
  5  6  1  0
  6  7  2  0
  7  8  1  0
  8  9  2  0
  9 10  1  0
 10 11  1  0
 11 12  2  0
  7 13  1  0
 13 14  2  0
  2 15  1  0
 15 16  2  0
 15 17  1  0
 17 18  1  0
 18 19  2  0
 19 20  1  0
 20 21  2  0
 21 22  1  0
 22 23  2  0
 23 24  1  0
 24 25  1  0
 24 26  2  0
 26 27  1  0
 27 28  2  0
 14  4  1  0
 28 18  1  0
 12  8  1  0
 28 22  1  0
M  END
>  <ref_pdb>  (174) 
x0554_0A

>  <ref_mols>  (174) 
x0554_0A,x0566_0A

>  <original SMILES>  (174) 
C[C@H](Cc1ccc(-c2nn[nH]n2)cc1)C(=O)Nc1cccc2nc(Cl)ccc12

>  <IC50 (nM)>  (174) 
1166.21869748955

>  <CNNaffinity>  (174) 
5.93322

>  <rationale>  (174) 
-1

$$$$
PV_002456750254
     RDKit          3D

 23 25  0  0  0  0  0  0  0  0999 V2000
   10.8762   16.1851   17.6694 C   0  0  0  0  0  0  0  0  0  0  0  0
   11.3650   15.3210   18.7776 C   0  0  0  0  0  0  0  0  0  0  0  0
   11.4214   15.5010   20.1297 C   0  0  0  0  0  0  0  0  0  0  0  0
   10.8659   16.5876   20.8528 C   0  0  0  0  0  0  0  0  0  0  0  0
   10.3935   17.5216   21.3448 N   0  0  0  0  0  0  0  0  0  0  0  0
   12.1251   14.3532   20.6058 C   0  0  0  0  0  0  0  0  0  0  0  0
   12.4995   14.0261   22.0048 C   0  0  0  0  0  0  0  0  0  0  0  0
   11.2333   13.8641   22.8152 C   0  0  0  0  0  0  0  0  0  0  0  0
   10.7581   14.7684   23.4640 O   0  0  0  0  0  0  0  0  0  0  0  0
   10.6800   12.6183   22.6969 N   0  0  0  0  0  0  0  0  0  0  0  0
    9.7860   11.9846   23.5683 C   0  0  0  0  0  0  0  0  0  0  0  0
    8.9462   12.7060   24.3908 C   0  0  0  0  0  0  0  0  0  0  0  0
    7.9959   12.0456   25.2145 C   0  0  0  0  0  0  0  0  0  0  0  0
    7.9076   10.6736   25.1993 C   0  0  0  0  0  0  0  0  0  0  0  0
    8.7747    9.9074   24.3749 C   0  0  0  0  0  0  0  0  0  0  0  0
    8.5819    8.5524   24.3863 N   0  0  0  0  0  0  0  0  0  0  0  0
    9.3746    7.8275   23.6674 C   0  0  0  0  0  0  0  0  0  0  0  0
    8.9704    6.1357   23.5083 Cl  0  0  0  0  0  0  0  0  0  0  0  0
   10.5168    8.3144   22.9727 C   0  0  0  0  0  0  0  0  0  0  0  0
   10.6984    9.6731   22.9161 C   0  0  0  0  0  0  0  0  0  0  0  0
    9.7740   10.5450   23.5805 C   0  0  0  0  0  0  0  0  0  0  0  0
   12.4188   13.5544   19.6283 N   0  0  0  0  0  0  0  0  0  0  0  0
   11.9447   14.1613   18.4785 O   0  0  0  0  0  0  0  0  0  0  0  0
  1  2  1  0
  2  3  2  0
  3  4  1  0
  4  5  3  0
  3  6  1  0
  6  7  1  0
  7  8  1  0
  8  9  2  0
  8 10  1  0
 10 11  1  0
 11 12  2  0
 12 13  1  0
 13 14  2  0
 14 15  1  0
 15 16  2  0
 16 17  1  0
 17 18  1  0
 17 19  2  0
 19 20  1  0
 20 21  2  0
  6 22  2  0
 22 23  1  0
 23  2  1  0
 21 11  1  0
 21 15  1  0
M  END
>  <ref_pdb>  (175) 
x0554_0A

>  <ref_mols>  (175) 
x0554_0A,x0566_0A

>  <original SMILES>  (175) 
Cc1onc(CC(=O)Nc2cccc3nc(Cl)ccc23)c1C#N

>  <IC50 (nM)>  (175) 
1168.5303588345396

>  <CNNaffinity>  (175) 
5.93236

>  <rationale>  (175) 
-1

$$$$
PV_007137265810
     RDKit          3D

 23 26  0  0  0  0  0  0  0  0999 V2000
    9.6859   14.8967   23.1185 O   0  0  0  0  0  0  0  0  0  0  0  0
   10.3517   14.0079   22.6077 C   0  0  0  0  0  0  0  0  0  0  0  0
    9.9996   12.6842   22.6677 N   0  0  0  0  0  0  0  0  0  0  0  0
    9.1179   12.0947   23.5455 C   0  0  0  0  0  0  0  0  0  0  0  0
    8.2320   12.8329   24.3389 C   0  0  0  0  0  0  0  0  0  0  0  0
    7.4361   12.1858   25.2882 C   0  0  0  0  0  0  0  0  0  0  0  0
    7.5481   10.8014   25.4342 C   0  0  0  0  0  0  0  0  0  0  0  0
    8.3947   10.0585   24.6166 C   0  0  0  0  0  0  0  0  0  0  0  0
    8.3803    8.7295   24.7688 N   0  0  0  0  0  0  0  0  0  0  0  0
    9.0579    7.9699   23.9021 C   0  0  0  0  0  0  0  0  0  0  0  0
    8.7531    6.2505   23.8893 Cl  0  0  0  0  0  0  0  0  0  0  0  0
    9.8936    8.5298   22.9353 C   0  0  0  0  0  0  0  0  0  0  0  0
    9.9832    9.9118   22.8093 C   0  0  0  0  0  0  0  0  0  0  0  0
    9.1784   10.7012   23.6444 C   0  0  0  0  0  0  0  0  0  0  0  0
   11.5739   14.3042   21.7598 C   0  0  0  0  0  0  0  0  0  0  0  0
   11.2220   15.0686   20.5658 N   0  0  0  0  0  0  0  0  0  0  0  0
    9.9984   15.6608   20.4416 N   0  0  0  0  0  0  0  0  0  0  0  0
   10.0695   16.2310   19.2738 C   0  0  0  0  0  0  0  0  0  0  0  0
   11.3587   15.9541   18.6924 C   0  0  0  0  0  0  0  0  0  0  0  0
   11.9802   16.4606   16.9676 Br  0  0  0  0  0  0  0  0  0  0  0  0
   12.0672   15.2469   19.5190 N   0  0  0  0  0  0  0  0  0  0  0  0
   12.9690   14.4649   22.3830 C   0  0  0  0  0  0  0  0  0  0  0  0
   12.6100   13.1679   21.6633 C   0  0  0  0  0  0  0  0  0  0  0  0
  1  2  2  0
  2  3  1  0
  3  4  1  0
  4  5  2  0
  5  6  1  0
  6  7  2  0
  7  8  1  0
  8  9  2  0
  9 10  1  0
 10 11  1  0
 10 12  2  0
 12 13  1  0
 13 14  2  0
  2 15  1  0
 15 16  1  0
 16 17  1  0
 17 18  2  0
 18 19  1  0
 19 20  1  0
 19 21  2  0
 15 22  1  0
 22 23  1  0
 14  4  1  0
 23 15  1  0
 14  8  1  0
 21 16  1  0
M  END
>  <ref_pdb>  (176) 
x0554_0A

>  <ref_mols>  (176) 
x0554_0A,x0566_0A

>  <original SMILES>  (176) 
O=C(Nc1cccc2nc(Cl)ccc12)C1(n2ncc(Br)n2)CC1

>  <IC50 (nM)>  (176) 
1177.389070462127

>  <CNNaffinity>  (176) 
5.92908

>  <rationale>  (176) 
-1

$$$$
PV_006863960785
     RDKit          3D

 23 26  0  0  0  0  0  0  0  0999 V2000
    8.7983   13.8481   22.0242 O   0  0  0  0  0  0  0  0  0  0  0  0
    9.8658   13.3061   22.2103 C   0  0  0  0  0  0  0  0  0  0  0  0
   10.0377   12.2272   23.0433 N   0  0  0  0  0  0  0  0  0  0  0  0
    9.1152   11.5682   23.8581 C   0  0  0  0  0  0  0  0  0  0  0  0
    8.1683   12.2411   24.5948 C   0  0  0  0  0  0  0  0  0  0  0  0
    7.3905   11.5464   25.5623 C   0  0  0  0  0  0  0  0  0  0  0  0
    7.5520   10.1893   25.7351 C   0  0  0  0  0  0  0  0  0  0  0  0
    8.4501    9.4649   24.9068 C   0  0  0  0  0  0  0  0  0  0  0  0
    8.4268    8.0991   25.0279 N   0  0  0  0  0  0  0  0  0  0  0  0
    9.0824    7.4198   24.1451 C   0  0  0  0  0  0  0  0  0  0  0  0
    8.7759    5.6971   24.0616 Cl  0  0  0  0  0  0  0  0  0  0  0  0
   10.0013    7.9686   23.2051 C   0  0  0  0  0  0  0  0  0  0  0  0
   10.0812    9.3322   23.1086 C   0  0  0  0  0  0  0  0  0  0  0  0
    9.2570   10.1442   23.9517 C   0  0  0  0  0  0  0  0  0  0  0  0
   11.2147   13.7547   21.6080 C   0  0  2  0  0  0  0  0  0  0  0  0
   11.9611   14.5961   22.6846 C   0  0  0  0  0  0  0  0  0  0  0  0
   13.1534   15.2657   22.0181 C   0  0  0  0  0  0  0  0  0  0  0  0
   12.6389   16.2866   21.0149 C   0  0  0  0  0  0  0  0  0  0  0  0
   11.8461   15.5963   19.9979 N   0  0  0  0  0  0  0  0  0  0  0  0
   11.7140   15.8704   18.6730 C   0  0  0  0  0  0  0  0  0  0  0  0
   11.0448   14.9406   18.0358 N   0  0  0  0  0  0  0  0  0  0  0  0
   10.7456   14.0040   18.9920 C   0  0  0  0  0  0  0  0  0  0  0  0
   11.1877   14.4015   20.2316 C   0  0  0  0  0  0  0  0  0  0  0  0
  1  2  2  0
  2  3  1  0
  3  4  1  0
  4  5  2  0
  5  6  1  0
  6  7  2  0
  7  8  1  0
  8  9  2  0
  9 10  1  0
 10 11  1  0
 10 12  2  0
 12 13  1  0
 13 14  2  0
 15  2  1  1
 15 16  1  0
 16 17  1  0
 17 18  1  0
 18 19  1  0
 19 20  1  0
 20 21  2  0
 21 22  1  0
 22 23  2  0
 14  4  1  0
 23 15  1  0
 14  8  1  0
 23 19  1  0
M  END
>  <ref_pdb>  (177) 
x0554_0A

>  <ref_mols>  (177) 
x0554_0A,x0566_0A

>  <original SMILES>  (177) 
O=C(Nc1cccc2nc(Cl)ccc12)[C@@H]1CCCn2cncc21

>  <IC50 (nM)>  (177) 
1179.31548206686

>  <CNNaffinity>  (177) 
5.92837

>  <rationale>  (177) 
-1

$$$$
PV_006931215234
     RDKit          3D

 22 24  0  0  0  0  0  0  0  0999 V2000
   12.6722   13.1784   19.2270 N   0  0  0  0  0  0  0  0  0  0  0  0
   12.0687   14.3719   19.5644 C   0  0  0  0  0  0  0  0  0  0  0  0
   11.4351   15.1863   18.6980 C   0  0  0  0  0  0  0  0  0  0  0  0
   11.2309   14.9274   16.8136 Br  0  0  0  0  0  0  0  0  0  0  0  0
   10.8874   16.2499   19.5199 C   0  0  0  0  0  0  0  0  0  0  0  0
   11.1893   16.1045   20.7889 N   0  0  0  0  0  0  0  0  0  0  0  0
   11.9392   14.9671   20.8123 N   0  0  0  0  0  0  0  0  0  0  0  0
   12.4575   14.4187   22.0558 C   0  0  0  0  0  0  0  0  0  0  0  0
   11.2672   13.9156   22.8354 C   0  0  0  0  0  0  0  0  0  0  0  0
   10.6159   14.7408   23.4537 O   0  0  0  0  0  0  0  0  0  0  0  0
   10.9449   12.5649   22.8249 N   0  0  0  0  0  0  0  0  0  0  0  0
    9.9309   11.9758   23.5808 C   0  0  0  0  0  0  0  0  0  0  0  0
    9.0531   12.7834   24.3163 C   0  0  0  0  0  0  0  0  0  0  0  0
    8.0439   12.2400   25.1049 C   0  0  0  0  0  0  0  0  0  0  0  0
    7.9071   10.8564   25.1556 C   0  0  0  0  0  0  0  0  0  0  0  0
    8.7498   10.0290   24.4193 C   0  0  0  0  0  0  0  0  0  0  0  0
    8.5091    8.7175   24.5014 N   0  0  0  0  0  0  0  0  0  0  0  0
    9.2491    7.8734   23.7798 C   0  0  0  0  0  0  0  0  0  0  0  0
    8.8051    6.1825   23.7672 Cl  0  0  0  0  0  0  0  0  0  0  0  0
   10.3215    8.3240   23.0070 C   0  0  0  0  0  0  0  0  0  0  0  0
   10.5934    9.6892   22.9020 C   0  0  0  0  0  0  0  0  0  0  0  0
    9.7770   10.5768   23.6180 C   0  0  0  0  0  0  0  0  0  0  0  0
  1  2  1  0
  2  3  2  0
  3  4  1  0
  3  5  1  0
  5  6  2  0
  6  7  1  0
  7  8  1  0
  8  9  1  0
  9 10  2  0
  9 11  1  0
 11 12  1  0
 12 13  2  0
 13 14  1  0
 14 15  2  0
 15 16  1  0
 16 17  2  0
 17 18  1  0
 18 19  1  0
 18 20  2  0
 20 21  1  0
 21 22  2  0
  7  2  1  0
 22 12  1  0
 22 16  1  0
M  END
>  <ref_pdb>  (178) 
x0554_0A

>  <ref_mols>  (178) 
x0554_0A,x0566_0A

>  <original SMILES>  (178) 
Nc1c(Br)cnn1CC(=O)Nc1cccc2nc(Cl)ccc12

>  <IC50 (nM)>  (178) 
1181.4082519208876

>  <CNNaffinity>  (178) 
5.9276

>  <rationale>  (178) 
-1

$$$$
Z3091962327
     RDKit          3D

 24 26  0  0  0  0  0  0  0  0999 V2000
   13.1402   13.5217   24.0766 C   0  0  0  0  0  0  0  0  0  0  0  0
   13.1600   13.1842   22.7045 C   0  0  0  0  0  0  0  0  0  0  0  0
   12.6412   13.8137   21.6677 O   0  0  0  0  0  0  0  0  0  0  0  0
   11.5587   14.7802   21.8225 C   0  0  2  0  0  0  0  0  0  0  0  0
   10.3259   14.3215   22.6339 C   0  0  0  0  0  0  0  0  0  0  0  0
    9.5735   15.1588   23.0995 O   0  0  0  0  0  0  0  0  0  0  0  0
   10.1420   12.9702   22.7175 N   0  0  0  0  0  0  0  0  0  0  0  0
    9.3896   12.2369   23.6391 C   0  0  0  0  0  0  0  0  0  0  0  0
    8.5305   12.8436   24.5280 C   0  0  0  0  0  0  0  0  0  0  0  0
    7.7219   12.0599   25.3962 C   0  0  0  0  0  0  0  0  0  0  0  0
    7.7692   10.6874   25.3302 C   0  0  0  0  0  0  0  0  0  0  0  0
    8.6500   10.0442   24.4208 C   0  0  0  0  0  0  0  0  0  0  0  0
    8.5762    8.6766   24.3770 N   0  0  0  0  0  0  0  0  0  0  0  0
    9.3919    8.0585   23.5858 C   0  0  0  0  0  0  0  0  0  0  0  0
    9.1371    6.3447   23.3520 Cl  0  0  0  0  0  0  0  0  0  0  0  0
   10.4478    8.6788   22.8612 C   0  0  0  0  0  0  0  0  0  0  0  0
   10.5070   10.0485   22.8583 C   0  0  0  0  0  0  0  0  0  0  0  0
    9.5440   10.8055   23.6081 C   0  0  0  0  0  0  0  0  0  0  0  0
   11.1417   15.1790   20.4072 C   0  0  0  0  0  0  0  0  0  0  0  0
   12.2719   15.8598   19.6441 C   0  0  0  0  0  0  0  0  0  0  0  0
   11.6836   16.5062   18.3685 C   0  0  0  0  0  0  0  0  0  0  0  0
   10.4829   15.8840   17.9221 O   0  0  0  0  0  0  0  0  0  0  0  0
   10.5012   14.4752   18.0393 C   0  0  0  0  0  0  0  0  0  0  0  0
   10.6728   14.0150   19.5135 C   0  0  0  0  0  0  0  0  0  0  0  0
  1  2  1  0
  2  3  1  0
  4  3  1  6
  4  5  1  0
  5  6  2  0
  5  7  1  0
  7  8  1  0
  8  9  2  0
  9 10  1  0
 10 11  2  0
 11 12  1  0
 12 13  2  0
 13 14  1  0
 14 15  1  0
 14 16  2  0
 16 17  1  0
 17 18  2  0
  4 19  1  0
 19 20  1  0
 20 21  1  0
 21 22  1  0
 22 23  1  0
 23 24  1  0
 18  8  1  0
 24 19  1  0
 18 12  1  0
M  END
>  <ref_pdb>  (179) 
x0554_0A

>  <ref_mols>  (179) 
x0554_0A,x0566_0A

>  <original SMILES>  (179) 
CCO[C@H](C(=O)Nc1cccc2nc(Cl)ccc12)C1CCOCC1

>  <IC50 (nM)>  (179) 
1183.0960380566682

>  <CNNaffinity>  (179) 
5.92698

>  <rationale>  (179) 
-1

$$$$
PV_007175712752
     RDKit          3D

 23 25  0  0  0  0  0  0  0  0999 V2000
   13.0638   13.0286   21.9078 N   0  0  0  0  0  0  0  0  0  0  0  0
   12.1900   14.2248   22.0689 C   0  0  1  0  0  0  0  0  0  0  0  0
   11.9669   14.9160   20.7136 C   0  0  0  0  0  0  0  0  0  0  0  0
   11.2347   14.0503   19.6736 C   0  0  0  0  0  0  0  0  0  0  0  0
   10.7816   14.8172   18.4718 C   0  0  0  0  0  0  0  0  0  0  0  0
    9.6828   15.6323   18.3514 C   0  0  0  0  0  0  0  0  0  0  0  0
    9.7263   16.1544   17.1034 N   0  0  0  0  0  0  0  0  0  0  0  0
   10.7824   15.7390   16.3923 N   0  0  0  0  0  0  0  0  0  0  0  0
   11.4158   14.9109   17.2140 C   0  0  0  0  0  0  0  0  0  0  0  0
   10.8036   13.9810   22.7820 C   0  0  0  0  0  0  0  0  0  0  0  0
   10.1334   14.9148   23.1890 O   0  0  0  0  0  0  0  0  0  0  0  0
   10.4442   12.6647   22.8280 N   0  0  0  0  0  0  0  0  0  0  0  0
    9.5502   12.0236   23.6796 C   0  0  0  0  0  0  0  0  0  0  0  0
    8.6558   12.7320   24.4466 C   0  0  0  0  0  0  0  0  0  0  0  0
    7.7560   12.0540   25.3128 C   0  0  0  0  0  0  0  0  0  0  0  0
    7.7637   10.6782   25.3649 C   0  0  0  0  0  0  0  0  0  0  0  0
    8.6484    9.9279   24.5452 C   0  0  0  0  0  0  0  0  0  0  0  0
    8.5052    8.5676   24.5895 N   0  0  0  0  0  0  0  0  0  0  0  0
    9.2538    7.8595   23.8078 C   0  0  0  0  0  0  0  0  0  0  0  0
    8.8827    6.1554   23.6796 Cl  0  0  0  0  0  0  0  0  0  0  0  0
   10.3197    8.3756   23.0191 C   0  0  0  0  0  0  0  0  0  0  0  0
   10.4854    9.7347   22.9710 C   0  0  0  0  0  0  0  0  0  0  0  0
    9.5961   10.5862   23.7076 C   0  0  0  0  0  0  0  0  0  0  0  0
  2  1  1  6
  2  3  1  0
  3  4  1  0
  4  5  1  0
  5  6  2  0
  6  7  1  0
  7  8  1  0
  8  9  2  0
  2 10  1  0
 10 11  2  0
 10 12  1  0
 12 13  1  0
 13 14  2  0
 14 15  1  0
 15 16  2  0
 16 17  1  0
 17 18  2  0
 18 19  1  0
 19 20  1  0
 19 21  2  0
 21 22  1  0
 22 23  2  0
  9  5  1  0
 23 13  1  0
 23 17  1  0
M  END
>  <ref_pdb>  (180) 
x0554_0A

>  <ref_mols>  (180) 
x0554_0A,x0566_0A

>  <original SMILES>  (180) 
N[C@@H](CCc1cn[nH]c1)C(=O)Nc1cccc2nc(Cl)ccc12

>  <IC50 (nM)>  (180) 
1199.1955272082575

>  <CNNaffinity>  (180) 
5.92111

>  <rationale>  (180) 
-1

$$$$
PV_007149288357
     RDKit          3D

 25 28  0  0  0  0  0  0  0  0999 V2000
   10.1678   14.9862   24.2838 O   0  0  0  0  0  0  0  0  0  0  0  0
   10.4261   14.2866   23.3216 C   0  0  0  0  0  0  0  0  0  0  0  0
    9.7952   13.0835   23.0562 N   0  0  0  0  0  0  0  0  0  0  0  0
    9.1111   12.2620   23.9558 C   0  0  0  0  0  0  0  0  0  0  0  0
    8.3088   12.9154   24.9860 C   0  0  0  0  0  0  0  0  0  0  0  0
    7.3871   12.0379   25.7719 C   0  0  0  0  0  0  0  0  0  0  0  0
    7.5024   10.6930   25.6930 C   0  0  0  0  0  0  0  0  0  0  0  0
    8.4058   10.0723   24.7733 C   0  0  0  0  0  0  0  0  0  0  0  0
    8.3983    8.7137   24.8118 N   0  0  0  0  0  0  0  0  0  0  0  0
    9.0650    8.0721   23.9077 C   0  0  0  0  0  0  0  0  0  0  0  0
    8.8027    6.3454   23.8046 Cl  0  0  0  0  0  0  0  0  0  0  0  0
    9.9110    8.6910   22.9509 C   0  0  0  0  0  0  0  0  0  0  0  0
    9.9743   10.0653   22.9283 C   0  0  0  0  0  0  0  0  0  0  0  0
    9.1958   10.8482   23.8572 C   0  0  0  0  0  0  0  0  0  0  0  0
   11.6267   14.7004   22.3379 C   0  0  1  0  0  0  0  0  0  0  0  0
   12.8131   13.9327   22.6533 C   0  0  0  0  0  0  0  0  0  0  0  0
   12.9239   12.8423   21.7264 C   0  0  0  0  0  0  0  0  0  0  0  0
   12.5572   13.5869   20.3922 C   0  0  0  0  0  0  0  0  0  0  0  0
   11.4548   14.4306   20.8508 N   0  0  0  0  0  0  0  0  0  0  0  0
   10.8147   15.2892   20.0155 C   0  0  0  0  0  0  0  0  0  0  0  0
   10.9945   15.2176   18.6262 C   0  0  0  0  0  0  0  0  0  0  0  0
   10.2678   16.1259   17.9004 C   0  0  0  0  0  0  0  0  0  0  0  0
    9.4381   17.0138   18.4582 N   0  0  0  0  0  0  0  0  0  0  0  0
    9.3430   16.9717   19.7817 C   0  0  0  0  0  0  0  0  0  0  0  0
    9.9902   16.1607   20.6021 N   0  0  0  0  0  0  0  0  0  0  0  0
  1  2  2  0
  2  3  1  0
  3  4  1  0
  4  5  2  0
  5  6  1  0
  6  7  2  0
  7  8  1  0
  8  9  2  0
  9 10  1  0
 10 11  1  0
 10 12  2  0
 12 13  1  0
 13 14  2  0
 15  2  1  1
 15 16  1  0
 16 17  1  0
 17 18  1  0
 18 19  1  0
 19 20  1  0
 20 21  2  0
 21 22  1  0
 22 23  2  0
 23 24  1  0
 24 25  2  0
 14  4  1  0
 19 15  1  0
 25 20  1  0
 14  8  1  0
M  END
>  <ref_pdb>  (181) 
x0554_0A

>  <ref_mols>  (181) 
x0554_0A,x0566_0A

>  <original SMILES>  (181) 
O=C(Nc1cccc2nc(Cl)ccc12)[C@H]1CCCN1c1ccncn1

>  <IC50 (nM)>  (181) 
1201.627890469506

>  <CNNaffinity>  (181) 
5.92023

>  <rationale>  (181) 
-1

$$$$
PV_006901895420
     RDKit          3D

 25 28  0  0  0  0  0  0  0  0999 V2000
   10.8975   14.4272   23.7710 O   0  0  0  0  0  0  0  0  0  0  0  0
   11.1974   13.6510   22.8787 C   0  0  0  0  0  0  0  0  0  0  0  0
   10.6466   12.4127   22.7660 N   0  0  0  0  0  0  0  0  0  0  0  0
    9.7398   11.8164   23.6400 C   0  0  0  0  0  0  0  0  0  0  0  0
    8.8642   12.5578   24.4055 C   0  0  0  0  0  0  0  0  0  0  0  0
    7.8951   11.9153   25.2183 C   0  0  0  0  0  0  0  0  0  0  0  0
    7.8183   10.5417   25.2470 C   0  0  0  0  0  0  0  0  0  0  0  0
    8.7197    9.7646   24.4679 C   0  0  0  0  0  0  0  0  0  0  0  0
    8.5487    8.4077   24.5065 N   0  0  0  0  0  0  0  0  0  0  0  0
    9.3209    7.6794   23.7698 C   0  0  0  0  0  0  0  0  0  0  0  0
    8.9182    5.9826   23.6070 Cl  0  0  0  0  0  0  0  0  0  0  0  0
   10.4506    8.1613   23.0507 C   0  0  0  0  0  0  0  0  0  0  0  0
   10.6438    9.5169   23.0024 C   0  0  0  0  0  0  0  0  0  0  0  0
    9.7278   10.3856   23.6776 C   0  0  0  0  0  0  0  0  0  0  0  0
   12.1991   13.9858   21.7794 C   0  0  2  0  0  0  0  0  0  0  0  0
   13.0871   15.1682   22.1771 C   0  0  0  0  0  0  0  0  0  0  0  0
   13.4647   15.8756   20.8742 C   0  0  0  0  0  0  0  0  0  0  0  0
   12.8525   15.0566   19.7210 C   0  0  0  0  0  0  0  0  0  0  0  0
   11.6254   14.3662   20.3507 C   0  0  2  0  0  0  0  0  0  0  0  0
   10.4059   15.2735   20.3281 C   0  0  0  0  0  0  0  0  0  0  0  0
    9.1808   14.7915   20.4456 N   0  0  0  0  0  0  0  0  0  0  0  0
    8.4208   15.9206   20.4275 N   0  0  0  0  0  0  0  0  0  0  0  0
    9.1986   16.9920   20.2506 C   0  0  0  0  0  0  0  0  0  0  0  0
    8.5972   18.6214   20.0693 S   0  0  0  0  0  0  0  0  0  0  0  0
   10.4558   16.6333   20.1763 N   0  0  0  0  0  0  0  0  0  0  0  0
  1  2  2  0
  2  3  1  0
  3  4  1  0
  4  5  2  0
  5  6  1  0
  6  7  2  0
  7  8  1  0
  8  9  2  0
  9 10  1  0
 10 11  1  0
 10 12  2  0
 12 13  1  0
 13 14  2  0
 15  2  1  1
 15 16  1  0
 16 17  1  0
 17 18  1  0
 18 19  1  0
 19 20  1  1
 20 21  2  0
 21 22  1  0
 22 23  1  0
 23 24  1  0
 23 25  2  0
 14  4  1  0
 19 15  1  0
 25 20  1  0
 14  8  1  0
M  END
>  <ref_pdb>  (182) 
x0554_0A

>  <ref_mols>  (182) 
x0554_0A,x0566_0A

>  <original SMILES>  (182) 
O=C(Nc1cccc2nc(Cl)ccc12)[C@@H]1CCC[C@@H]1c1n[nH]c(S)n1

>  <IC50 (nM)>  (182) 
1201.9599584004234

>  <CNNaffinity>  (182) 
5.92011

>  <rationale>  (182) 
-1

$$$$
PV_002436376592
     RDKit          3D

 28 31  0  0  0  0  0  0  0  0999 V2000
   13.4169   13.5105   24.9582 C   0  0  0  0  0  0  0  0  0  0  0  0
   14.0289   12.8824   23.7578 C   0  0  0  0  0  0  0  0  0  0  0  0
   15.1414   12.1683   23.7432 N   0  0  0  0  0  0  0  0  0  0  0  0
   15.1729   11.5178   22.5395 N   0  0  0  0  0  0  0  0  0  0  0  0
   14.1122   11.8074   21.8337 N   0  0  0  0  0  0  0  0  0  0  0  0
   13.3953   12.7217   22.5511 N   0  0  0  0  0  0  0  0  0  0  0  0
   12.3926   13.5969   21.8749 C   0  0  2  0  0  0  0  0  0  0  0  0
   12.9266   15.0149   21.5782 C   0  0  0  0  0  0  0  0  0  0  0  0
   11.9327   15.8581   20.8035 C   0  0  0  0  0  0  0  0  0  0  0  0
   11.8789   15.8043   19.4006 C   0  0  0  0  0  0  0  0  0  0  0  0
   10.9594   16.5854   18.6899 C   0  0  0  0  0  0  0  0  0  0  0  0
   10.0806   17.4279   19.3775 C   0  0  0  0  0  0  0  0  0  0  0  0
   10.1274   17.4922   20.7743 C   0  0  0  0  0  0  0  0  0  0  0  0
   11.0314   16.6927   21.4820 C   0  0  0  0  0  0  0  0  0  0  0  0
   11.1233   13.5858   22.7448 C   0  0  0  0  0  0  0  0  0  0  0  0
   10.8785   14.4479   23.5711 O   0  0  0  0  0  0  0  0  0  0  0  0
   10.3587   12.4667   22.5680 N   0  0  0  0  0  0  0  0  0  0  0  0
    9.6042   11.8509   23.5748 C   0  0  0  0  0  0  0  0  0  0  0  0
    8.7812   12.5859   24.3946 C   0  0  0  0  0  0  0  0  0  0  0  0
    7.8779   11.9287   25.2715 C   0  0  0  0  0  0  0  0  0  0  0  0
    7.8407   10.5524   25.3110 C   0  0  0  0  0  0  0  0  0  0  0  0
    8.7186    9.7858   24.4956 C   0  0  0  0  0  0  0  0  0  0  0  0
    8.5621    8.4288   24.5428 N   0  0  0  0  0  0  0  0  0  0  0  0
    9.3289    7.7085   23.7896 C   0  0  0  0  0  0  0  0  0  0  0  0
    8.9095    6.0165   23.6391 Cl  0  0  0  0  0  0  0  0  0  0  0  0
   10.4481    8.2054   23.0608 C   0  0  0  0  0  0  0  0  0  0  0  0
   10.6231    9.5639   23.0009 C   0  0  0  0  0  0  0  0  0  0  0  0
    9.6807   10.4223   23.6618 C   0  0  0  0  0  0  0  0  0  0  0  0
  1  2  1  0
  2  3  2  0
  3  4  1  0
  4  5  2  0
  5  6  1  0
  6  7  1  0
  7  8  1  1
  8  9  1  0
  9 10  2  0
 10 11  1  0
 11 12  2  0
 12 13  1  0
 13 14  2  0
  7 15  1  0
 15 16  2  0
 15 17  1  0
 17 18  1  0
 18 19  2  0
 19 20  1  0
 20 21  2  0
 21 22  1  0
 22 23  2  0
 23 24  1  0
 24 25  1  0
 24 26  2  0
 26 27  1  0
 27 28  2  0
  6  2  1  0
 14  9  1  0
 28 18  1  0
 28 22  1  0
M  END
>  <ref_pdb>  (183) 
x0554_0A

>  <ref_mols>  (183) 
x0554_0A,x0566_0A

>  <original SMILES>  (183) 
Cc1nnnn1[C@H](Cc1ccccc1)C(=O)Nc1cccc2nc(Cl)ccc12

>  <IC50 (nM)>  (183) 
1203.233735804928

>  <CNNaffinity>  (183) 
5.91965

>  <rationale>  (183) 
-1

$$$$
Z3091962793
     RDKit          3D

 24 26  0  0  0  0  0  0  0  0999 V2000
    9.9541   14.3989   16.4783 C   0  0  0  0  0  0  0  0  0  0  0  0
   10.8184   14.8458   17.6087 C   0  0  0  0  0  0  0  0  0  0  0  0
   12.1022   15.0465   17.5037 N   0  0  0  0  0  0  0  0  0  0  0  0
   12.5581   15.4786   18.7204 N   0  0  0  0  0  0  0  0  0  0  0  0
   11.5387   15.5358   19.5332 C   0  0  0  0  0  0  0  0  0  0  0  0
   11.6322   15.9660   20.9642 C   0  0  0  0  0  0  0  0  0  0  0  0
   12.8348   15.3263   21.6686 C   0  0  0  0  0  0  0  0  0  0  0  0
   12.5427   13.8576   21.9863 C   0  0  0  0  0  0  0  0  0  0  0  0
   11.3331   13.6668   22.9023 C   0  0  0  0  0  0  0  0  0  0  0  0
   10.9924   14.5046   23.7152 O   0  0  0  0  0  0  0  0  0  0  0  0
   10.6940   12.4661   22.7362 N   0  0  0  0  0  0  0  0  0  0  0  0
    9.7707   11.8605   23.6015 C   0  0  0  0  0  0  0  0  0  0  0  0
    8.8976   12.6103   24.3610 C   0  0  0  0  0  0  0  0  0  0  0  0
    7.9181   11.9821   25.1756 C   0  0  0  0  0  0  0  0  0  0  0  0
    7.8375   10.6102   25.2209 C   0  0  0  0  0  0  0  0  0  0  0  0
    8.7336    9.8178   24.4539 C   0  0  0  0  0  0  0  0  0  0  0  0
    8.5397    8.4653   24.5110 N   0  0  0  0  0  0  0  0  0  0  0  0
    9.2895    7.7144   23.7755 C   0  0  0  0  0  0  0  0  0  0  0  0
    8.8562    6.0218   23.6603 Cl  0  0  0  0  0  0  0  0  0  0  0  0
   10.4123    8.1751   23.0331 C   0  0  0  0  0  0  0  0  0  0  0  0
   10.6333    9.5277   22.9689 C   0  0  0  0  0  0  0  0  0  0  0  0
    9.7439   10.4234   23.6477 C   0  0  0  0  0  0  0  0  0  0  0  0
   10.3915   15.1589   18.8800 N   0  0  0  0  0  0  0  0  0  0  0  0
    9.0664   15.0998   19.4760 C   0  0  0  0  0  0  0  0  0  0  0  0
  1  2  1  0
  2  3  2  0
  3  4  1  0
  4  5  2  0
  5  6  1  0
  6  7  1  0
  7  8  1  0
  8  9  1  0
  9 10  2  0
  9 11  1  0
 11 12  1  0
 12 13  2  0
 13 14  1  0
 14 15  2  0
 15 16  1  0
 16 17  2  0
 17 18  1  0
 18 19  1  0
 18 20  2  0
 20 21  1  0
 21 22  2  0
  5 23  1  0
 23 24  1  0
 23  2  1  0
 22 12  1  0
 22 16  1  0
M  END
>  <ref_pdb>  (184) 
x0554_0A

>  <ref_mols>  (184) 
x0554_0A,x0566_0A

>  <original SMILES>  (184) 
Cc1nnc(CCCC(=O)Nc2cccc3nc(Cl)ccc23)n1C

>  <IC50 (nM)>  (184) 
1203.566247508616

>  <CNNaffinity>  (184) 
5.91953

>  <rationale>  (184) 
-1

$$$$
PV_007069400940
     RDKit          3D

 24 27  0  0  0  0  0  0  0  0999 V2000
    9.9187   15.0458   23.2240 O   0  0  0  0  0  0  0  0  0  0  0  0
   10.3236   14.0688   22.6317 C   0  0  0  0  0  0  0  0  0  0  0  0
    9.6341   12.8920   22.5122 N   0  0  0  0  0  0  0  0  0  0  0  0
    8.8792   12.2430   23.4951 C   0  0  0  0  0  0  0  0  0  0  0  0
    8.1009   12.9618   24.3732 C   0  0  0  0  0  0  0  0  0  0  0  0
    7.3949   12.3055   25.4138 C   0  0  0  0  0  0  0  0  0  0  0  0
    7.5054   10.9451   25.5695 C   0  0  0  0  0  0  0  0  0  0  0  0
    8.2856   10.1780   24.6637 C   0  0  0  0  0  0  0  0  0  0  0  0
    8.3185    8.8265   24.8896 N   0  0  0  0  0  0  0  0  0  0  0  0
    8.8564    8.0836   23.9762 C   0  0  0  0  0  0  0  0  0  0  0  0
    8.6556    6.3518   24.1239 Cl  0  0  0  0  0  0  0  0  0  0  0  0
    9.5182    8.5678   22.8139 C   0  0  0  0  0  0  0  0  0  0  0  0
    9.5762    9.9257   22.6242 C   0  0  0  0  0  0  0  0  0  0  0  0
    8.9442   10.8067   23.5625 C   0  0  0  0  0  0  0  0  0  0  0  0
   11.6831   14.0483   21.9056 C   0  0  2  0  0  0  0  0  0  0  0  0
   11.3782   14.2098   20.4622 C   0  0  0  0  0  0  0  0  0  0  0  0
   10.2208   13.9139   19.8785 N   0  0  0  0  0  0  0  0  0  0  0  0
   10.5093   14.1687   18.6090 N   0  0  0  0  0  0  0  0  0  0  0  0
   11.7297   14.5958   18.3920 N   0  0  0  0  0  0  0  0  0  0  0  0
   12.2995   14.6234   19.5607 N   0  0  0  0  0  0  0  0  0  0  0  0
   12.5495   12.7951   22.2893 C   0  0  0  0  0  0  0  0  0  0  0  0
   13.0838   13.2007   23.6722 C   0  0  0  0  0  0  0  0  0  0  0  0
   13.0254   14.6124   23.7132 O   0  0  0  0  0  0  0  0  0  0  0  0
   12.5969   15.1480   22.4805 C   0  0  0  0  0  0  0  0  0  0  0  0
  1  2  2  0
  2  3  1  0
  3  4  1  0
  4  5  2  0
  5  6  1  0
  6  7  2  0
  7  8  1  0
  8  9  2  0
  9 10  1  0
 10 11  1  0
 10 12  2  0
 12 13  1  0
 13 14  2  0
 15  2  1  1
 15 16  1  0
 16 17  2  0
 17 18  1  0
 18 19  1  0
 19 20  2  0
 15 21  1  0
 21 22  1  0
 22 23  1  0
 23 24  1  0
 14  4  1  0
 24 15  1  0
 14  8  1  0
 20 16  1  0
M  END
>  <ref_pdb>  (185) 
x0554_0A

>  <ref_mols>  (185) 
x0554_0A,x0566_0A

>  <original SMILES>  (185) 
O=C(Nc1cccc2nc(Cl)ccc12)[C@]1(c2nn[nH]n2)CCOC1

>  <IC50 (nM)>  (185) 
1204.2315466086056

>  <CNNaffinity>  (185) 
5.91929

>  <rationale>  (185) 
-1

$$$$
PV_006813904382
     RDKit          3D

 23 26  0  0  0  0  0  0  0  0999 V2000
   10.0597   14.9750   22.9237 O   0  0  0  0  0  0  0  0  0  0  0  0
   10.6317   13.9724   22.5482 C   0  0  0  0  0  0  0  0  0  0  0  0
   10.0588   12.7234   22.5237 N   0  0  0  0  0  0  0  0  0  0  0  0
    9.3880   12.0756   23.5658 C   0  0  0  0  0  0  0  0  0  0  0  0
    8.5985   12.7528   24.4666 C   0  0  0  0  0  0  0  0  0  0  0  0
    7.7933   12.0257   25.3884 C   0  0  0  0  0  0  0  0  0  0  0  0
    7.7937   10.6477   25.3717 C   0  0  0  0  0  0  0  0  0  0  0  0
    8.6448    9.9379   24.4792 C   0  0  0  0  0  0  0  0  0  0  0  0
    8.5495    8.5705   24.4813 N   0  0  0  0  0  0  0  0  0  0  0  0
    9.3432    7.9162   23.6972 C   0  0  0  0  0  0  0  0  0  0  0  0
    9.0305    6.2103   23.4776 Cl  0  0  0  0  0  0  0  0  0  0  0  0
   10.4208    8.4878   22.9630 C   0  0  0  0  0  0  0  0  0  0  0  0
   10.5103    9.8565   22.9270 C   0  0  0  0  0  0  0  0  0  0  0  0
    9.5368   10.6461   23.6251 C   0  0  0  0  0  0  0  0  0  0  0  0
   12.0665   13.9599   21.9835 C   0  0  0  0  0  0  0  0  0  0  0  0
   12.1185   14.4549   20.5711 C   0  0  0  0  0  0  0  0  0  0  0  0
   12.4655   13.7038   19.4504 C   0  0  0  0  0  0  0  0  0  0  0  0
   12.2531   14.3898   18.2454 C   0  0  0  0  0  0  0  0  0  0  0  0
   11.8393   15.5192   17.8533 N   0  0  0  0  0  0  0  0  0  0  0  0
   11.5497   16.2846   18.9917 C   0  0  0  0  0  0  0  0  0  0  0  0
   11.7632   15.9135   20.3923 C   0  0  0  0  0  0  0  0  0  0  0  0
   13.0070   12.9142   22.5407 C   0  0  0  0  0  0  0  0  0  0  0  0
   13.1867   14.3495   22.9470 C   0  0  0  0  0  0  0  0  0  0  0  0
  1  2  2  0
  2  3  1  0
  3  4  1  0
  4  5  2  0
  5  6  1  0
  6  7  2  0
  7  8  1  0
  8  9  2  0
  9 10  1  0
 10 11  1  0
 10 12  2  0
 12 13  1  0
 13 14  2  0
  2 15  1  0
 15 16  1  0
 16 17  2  0
 17 18  1  0
 18 19  2  0
 19 20  1  0
 20 21  2  0
 15 22  1  0
 22 23  1  0
 14  4  1  0
 23 15  1  0
 14  8  1  0
 21 16  1  0
M  END
>  <ref_pdb>  (186) 
x0554_0A

>  <ref_mols>  (186) 
x0554_0A,x0566_0A

>  <original SMILES>  (186) 
O=C(Nc1cccc2nc(Cl)ccc12)C1(c2ccncc2)CC1

>  <IC50 (nM)>  (186) 
1209.4000994992068

>  <CNNaffinity>  (186) 
5.91743

>  <rationale>  (186) 
-1

$$$$
PV_007133344238
     RDKit          3D

 27 30  0  0  0  0  0  0  0  0999 V2000
   11.9482   14.4865   20.8473 C   0  0  0  0  0  0  0  0  0  0  0  0
   12.0783   14.2267   22.3642 C   0  0  1  0  0  0  0  0  0  0  0  0
   10.6939   14.0008   22.9904 C   0  0  0  0  0  0  0  0  0  0  0  0
   10.0557   14.9103   23.4844 O   0  0  0  0  0  0  0  0  0  0  0  0
   10.2338   12.7204   22.8567 N   0  0  0  0  0  0  0  0  0  0  0  0
    9.4061   12.0210   23.7318 C   0  0  0  0  0  0  0  0  0  0  0  0
    8.5037   12.6555   24.5533 C   0  0  0  0  0  0  0  0  0  0  0  0
    7.6500   11.8953   25.3978 C   0  0  0  0  0  0  0  0  0  0  0  0
    7.7104   10.5196   25.3773 C   0  0  0  0  0  0  0  0  0  0  0  0
    8.6262    9.8543   24.5169 C   0  0  0  0  0  0  0  0  0  0  0  0
    8.5556    8.4880   24.4864 N   0  0  0  0  0  0  0  0  0  0  0  0
    9.3636    7.8617   23.6950 C   0  0  0  0  0  0  0  0  0  0  0  0
    9.0601    6.1608   23.4278 Cl  0  0  0  0  0  0  0  0  0  0  0  0
   10.4408    8.4667   22.9863 C   0  0  0  0  0  0  0  0  0  0  0  0
   10.5323    9.8320   23.0067 C   0  0  0  0  0  0  0  0  0  0  0  0
    9.5463   10.5935   23.7225 C   0  0  0  0  0  0  0  0  0  0  0  0
   13.1160   13.1476   22.7206 C   0  0  0  0  0  0  0  0  0  0  0  0
   13.5707   12.1804   21.8019 C   0  0  0  0  0  0  0  0  0  0  0  0
   14.8031   11.5248   22.0052 C   0  0  0  0  0  0  0  0  0  0  0  0
   15.4585   11.6491   23.2521 C   0  0  0  0  0  0  0  0  0  0  0  0
   14.8859   12.4524   24.2672 C   0  0  0  0  0  0  0  0  0  0  0  0
   15.5068   12.4361   25.6136 C   0  0  0  0  0  0  0  0  0  0  0  0
   15.2609   13.2868   26.6084 N   0  0  0  0  0  0  0  0  0  0  0  0
   16.0439   12.8086   27.5605 N   0  0  0  0  0  0  0  0  0  0  0  0
   16.7314   11.7402   27.2284 N   0  0  0  0  0  0  0  0  0  0  0  0
   16.4115   11.4873   25.9996 N   0  0  0  0  0  0  0  0  0  0  0  0
   13.7357   13.2159   23.9758 C   0  0  0  0  0  0  0  0  0  0  0  0
  2  1  1  6
  2  3  1  0
  3  4  2  0
  3  5  1  0
  5  6  1  0
  6  7  2  0
  7  8  1  0
  8  9  2  0
  9 10  1  0
 10 11  2  0
 11 12  1  0
 12 13  1  0
 12 14  2  0
 14 15  1  0
 15 16  2  0
  2 17  1  0
 17 18  2  0
 18 19  1  0
 19 20  2  0
 20 21  1  0
 21 22  1  0
 22 23  2  0
 23 24  1  0
 24 25  1  0
 25 26  2  0
 21 27  2  0
 16  6  1  0
 27 17  1  0
 16 10  1  0
 26 22  1  0
M  END
>  <ref_pdb>  (187) 
x0554_0A

>  <ref_mols>  (187) 
x0554_0A,x0566_0A

>  <original SMILES>  (187) 
C[C@@H](C(=O)Nc1cccc2nc(Cl)ccc12)c1cccc(-c2nn[nH]n2)c1

>  <IC50 (nM)>  (187) 
1214.199361056889

>  <CNNaffinity>  (187) 
5.91571

>  <rationale>  (187) 
-1

$$$$
Z3091962721
     RDKit          3D

 24 26  0  0  0  0  0  0  0  0999 V2000
    9.3922   15.8721   18.5518 C   0  0  0  0  0  0  0  0  0  0  0  0
   10.9166   15.6944   18.5913 C   0  0  0  0  0  0  0  0  0  0  0  0
   11.5579   16.7869   17.7128 C   0  0  0  0  0  0  0  0  0  0  0  0
   11.3576   14.2922   18.1488 C   0  0  0  0  0  0  0  0  0  0  0  0
   12.1429   13.7301   19.3053 C   0  0  0  0  0  0  0  0  0  0  0  0
   12.8687   12.7679   19.2683 O   0  0  0  0  0  0  0  0  0  0  0  0
   11.9128   14.5013   20.4326 N   0  0  0  0  0  0  0  0  0  0  0  0
   12.4130   14.1874   21.7938 C   0  0  0  0  0  0  0  0  0  0  0  0
   11.4245   13.7710   22.9249 C   0  0  0  0  0  0  0  0  0  0  0  0
   11.2907   14.4444   23.9254 O   0  0  0  0  0  0  0  0  0  0  0  0
   10.7890   12.5726   22.7336 N   0  0  0  0  0  0  0  0  0  0  0  0
    9.8743   11.9526   23.6087 C   0  0  0  0  0  0  0  0  0  0  0  0
    9.0241   12.6969   24.3973 C   0  0  0  0  0  0  0  0  0  0  0  0
    8.0275   12.0665   25.1911 C   0  0  0  0  0  0  0  0  0  0  0  0
    7.9006   10.6970   25.1835 C   0  0  0  0  0  0  0  0  0  0  0  0
    8.7779    9.9047   24.3962 C   0  0  0  0  0  0  0  0  0  0  0  0
    8.5624    8.5531   24.4191 N   0  0  0  0  0  0  0  0  0  0  0  0
    9.3433    7.8096   23.7056 C   0  0  0  0  0  0  0  0  0  0  0  0
    8.9329    6.1143   23.5737 Cl  0  0  0  0  0  0  0  0  0  0  0  0
   10.4847    8.2757   22.9933 C   0  0  0  0  0  0  0  0  0  0  0  0
   10.7065    9.6295   22.9469 C   0  0  0  0  0  0  0  0  0  0  0  0
    9.8114   10.5167   23.6224 C   0  0  0  0  0  0  0  0  0  0  0  0
   11.3940   15.7360   20.0669 C   0  0  0  0  0  0  0  0  0  0  0  0
   11.3071   16.6720   20.8245 O   0  0  0  0  0  0  0  0  0  0  0  0
  1  2  1  0
  2  3  1  0
  2  4  1  0
  4  5  1  0
  5  6  2  0
  5  7  1  0
  7  8  1  0
  8  9  1  0
  9 10  2  0
  9 11  1  0
 11 12  1  0
 12 13  2  0
 13 14  1  0
 14 15  2  0
 15 16  1  0
 16 17  2  0
 17 18  1  0
 18 19  1  0
 18 20  2  0
 20 21  1  0
 21 22  2  0
  7 23  1  0
 23 24  2  0
 23  2  1  0
 22 12  1  0
 22 16  1  0
M  END
>  <ref_pdb>  (188) 
x0554_0A

>  <ref_mols>  (188) 
x0554_0A,x0566_0A

>  <original SMILES>  (188) 
CC1(C)CC(=O)N(CC(=O)Nc2cccc3nc(Cl)ccc23)C1=O

>  <IC50 (nM)>  (188) 
1216.045990118407

>  <CNNaffinity>  (188) 
5.91505

>  <rationale>  (188) 
-1

$$$$
PV_006806630361
     RDKit          3D

 26 27  0  0  0  0  0  0  0  0999 V2000
    9.0372   15.5833   17.8308 C   0  0  0  0  0  0  0  0  0  0  0  0
   10.5202   15.8366   17.6327 C   0  0  0  0  0  0  0  0  0  0  0  0
   10.9032   17.2791   17.9657 C   0  0  0  0  0  0  0  0  0  0  0  0
   10.9209   15.5318   16.1989 C   0  0  0  0  0  0  0  0  0  0  0  0
   11.2658   14.9102   18.4687 O   0  0  0  0  0  0  0  0  0  0  0  0
   11.0272   14.8961   19.8000 C   0  0  0  0  0  0  0  0  0  0  0  0
   10.4216   15.7182   20.4497 O   0  0  0  0  0  0  0  0  0  0  0  0
   11.6598   13.7968   20.3262 N   0  0  0  0  0  0  0  0  0  0  0  0
   12.2339   13.8606   21.6880 C   0  0  1  0  0  0  0  0  0  0  0  0
   12.9869   15.2198   21.9441 C   0  0  0  0  0  0  0  0  0  0  0  0
   13.7205   15.7199   20.8391 C   0  0  0  0  0  0  0  0  0  0  0  0
   14.5759   16.7215   20.9862 O   0  0  0  0  0  0  0  0  0  0  0  0
   11.2563   13.5232   22.8856 C   0  0  0  0  0  0  0  0  0  0  0  0
   11.2684   14.1397   23.9345 O   0  0  0  0  0  0  0  0  0  0  0  0
   10.4621   12.4328   22.6661 N   0  0  0  0  0  0  0  0  0  0  0  0
    9.6359   11.8074   23.6220 C   0  0  0  0  0  0  0  0  0  0  0  0
    8.8126   12.5530   24.4368 C   0  0  0  0  0  0  0  0  0  0  0  0
    7.8885   11.9249   25.3178 C   0  0  0  0  0  0  0  0  0  0  0  0
    7.8229   10.5512   25.3735 C   0  0  0  0  0  0  0  0  0  0  0  0
    8.6779    9.7585   24.5591 C   0  0  0  0  0  0  0  0  0  0  0  0
    8.5181    8.4019   24.6361 N   0  0  0  0  0  0  0  0  0  0  0  0
    9.2458    7.6696   23.8572 C   0  0  0  0  0  0  0  0  0  0  0  0
    8.8357    5.9726   23.7528 Cl  0  0  0  0  0  0  0  0  0  0  0  0
   10.3278    8.1485   23.0647 C   0  0  0  0  0  0  0  0  0  0  0  0
   10.5178    9.5040   22.9865 C   0  0  0  0  0  0  0  0  0  0  0  0
    9.6330   10.3766   23.6941 C   0  0  0  0  0  0  0  0  0  0  0  0
  1  2  1  0
  2  3  1  0
  2  4  1  0
  2  5  1  0
  5  6  1  0
  6  7  2  0
  6  8  1  0
  8  9  1  0
  9 10  1  1
 10 11  1  0
 11 12  1  0
  9 13  1  0
 13 14  2  0
 13 15  1  0
 15 16  1  0
 16 17  2  0
 17 18  1  0
 18 19  2  0
 19 20  1  0
 20 21  2  0
 21 22  1  0
 22 23  1  0
 22 24  2  0
 24 25  1  0
 25 26  2  0
 26 16  1  0
 26 20  1  0
M  END
>  <ref_pdb>  (189) 
x0554_0A

>  <ref_mols>  (189) 
x0554_0A,x0566_0A

>  <original SMILES>  (189) 
CC(C)(C)OC(=O)N[C@@H](CCO)C(=O)Nc1cccc2nc(Cl)ccc12

>  <IC50 (nM)>  (189) 
1217.9234710483936

>  <CNNaffinity>  (189) 
5.91438

>  <rationale>  (189) 
-1

$$$$
PV_002508678079
     RDKit          3D

 24 27  0  0  0  0  0  0  0  0999 V2000
   11.0108   14.5643   23.9523 O   0  0  0  0  0  0  0  0  0  0  0  0
   11.2833   13.8799   22.9849 C   0  0  0  0  0  0  0  0  0  0  0  0
   12.3482   14.3534   21.9755 C   0  0  0  0  0  0  0  0  0  0  0  0
   11.9355   14.6925   20.6243 N   0  0  0  0  0  0  0  0  0  0  0  0
   12.3352   13.9147   19.5893 N   0  0  0  0  0  0  0  0  0  0  0  0
   11.9427   14.5246   18.4930 C   0  0  0  0  0  0  0  0  0  0  0  0
   11.2624   15.7455   18.7740 C   0  0  0  0  0  0  0  0  0  0  0  0
   10.6058   16.7836   18.0689 C   0  0  0  0  0  0  0  0  0  0  0  0
   10.0423   17.7879   18.8370 C   0  0  0  0  0  0  0  0  0  0  0  0
   10.1698   17.7540   20.2482 C   0  0  0  0  0  0  0  0  0  0  0  0
   10.7954   16.8034   20.9372 N   0  0  0  0  0  0  0  0  0  0  0  0
   11.2966   15.8170   20.1804 C   0  0  0  0  0  0  0  0  0  0  0  0
   10.7323   12.6416   22.7688 N   0  0  0  0  0  0  0  0  0  0  0  0
    9.8136   11.9766   23.6097 C   0  0  0  0  0  0  0  0  0  0  0  0
    8.9388   12.6897   24.4015 C   0  0  0  0  0  0  0  0  0  0  0  0
    7.9725   12.0303   25.2078 C   0  0  0  0  0  0  0  0  0  0  0  0
    7.8834   10.6583   25.1948 C   0  0  0  0  0  0  0  0  0  0  0  0
    8.7700    9.8965   24.3885 C   0  0  0  0  0  0  0  0  0  0  0  0
    8.5770    8.5412   24.4027 N   0  0  0  0  0  0  0  0  0  0  0  0
    9.3659    7.8190   23.6780 C   0  0  0  0  0  0  0  0  0  0  0  0
    8.9726    6.1220   23.5268 Cl  0  0  0  0  0  0  0  0  0  0  0  0
   10.5004    8.3114   22.9730 C   0  0  0  0  0  0  0  0  0  0  0  0
   10.6991    9.6703   22.9304 C   0  0  0  0  0  0  0  0  0  0  0  0
    9.7853   10.5376   23.6099 C   0  0  0  0  0  0  0  0  0  0  0  0
  1  2  2  0
  2  3  1  0
  3  4  1  0
  4  5  1  0
  5  6  2  0
  6  7  1  0
  7  8  2  0
  8  9  1  0
  9 10  2  0
 10 11  1  0
 11 12  2  0
  2 13  1  0
 13 14  1  0
 14 15  2  0
 15 16  1  0
 16 17  2  0
 17 18  1  0
 18 19  2  0
 19 20  1  0
 20 21  1  0
 20 22  2  0
 22 23  1  0
 23 24  2  0
 12  4  1  0
 24 14  1  0
 12  7  1  0
 24 18  1  0
M  END
>  <ref_pdb>  (190) 
x0554_0A

>  <ref_mols>  (190) 
x0554_0A,x0566_0A

>  <original SMILES>  (190) 
O=C(Cn1ncc2cccnc21)Nc1cccc2nc(Cl)ccc12

>  <IC50 (nM)>  (190) 
1218.7931368487355

>  <CNNaffinity>  (190) 
5.91407

>  <rationale>  (190) 
-1

$$$$
Z3091962845
     RDKit          3D

 24 26  0  0  0  0  0  0  0  0999 V2000
    9.3869   14.6373   17.1996 C   0  0  0  0  0  0  0  0  0  0  0  0
   10.4557   15.7237   17.2877 C   0  0  0  0  0  0  0  0  0  0  0  0
   11.4446   15.4713   18.4348 C   0  0  0  0  0  0  0  0  0  0  0  0
   10.8038   15.5737   19.8161 C   0  0  0  0  0  0  0  0  0  0  0  0
    9.8828   16.3522   20.0144 O   0  0  0  0  0  0  0  0  0  0  0  0
   11.2979   14.7929   20.8396 N   0  0  0  0  0  0  0  0  0  0  0  0
   12.5220   13.9762   20.7852 C   0  0  0  0  0  0  0  0  0  0  0  0
   12.5948   13.4014   22.1973 C   0  0  0  0  0  0  0  0  0  0  0  0
   12.1258   14.5851   23.0346 C   0  0  0  0  0  0  0  0  0  0  0  0
   10.9328   15.1451   22.2366 C   0  0  2  0  0  0  0  0  0  0  0  0
    9.5616   14.6370   22.7776 C   0  0  0  0  0  0  0  0  0  0  0  0
    8.7774   15.4135   23.2859 O   0  0  0  0  0  0  0  0  0  0  0  0
    9.3320   13.2777   22.6903 N   0  0  0  0  0  0  0  0  0  0  0  0
    8.7000   12.4762   23.6598 C   0  0  0  0  0  0  0  0  0  0  0  0
    7.9063   13.0451   24.6308 C   0  0  0  0  0  0  0  0  0  0  0  0
    7.3276   12.2552   25.6573 C   0  0  0  0  0  0  0  0  0  0  0  0
    7.5366   10.8976   25.6781 C   0  0  0  0  0  0  0  0  0  0  0  0
    8.3045   10.2738   24.6605 C   0  0  0  0  0  0  0  0  0  0  0  0
    8.3841    8.9068   24.7260 N   0  0  0  0  0  0  0  0  0  0  0  0
    8.9729    8.2969   23.7457 C   0  0  0  0  0  0  0  0  0  0  0  0
    8.8573    6.5547   23.6960 Cl  0  0  0  0  0  0  0  0  0  0  0  0
    9.6619    8.9400   22.6822 C   0  0  0  0  0  0  0  0  0  0  0  0
    9.6579   10.3111   22.6465 C   0  0  0  0  0  0  0  0  0  0  0  0
    8.9152   11.0514   23.6257 C   0  0  0  0  0  0  0  0  0  0  0  0
  1  2  1  0
  2  3  1  0
  3  4  1  0
  4  5  2  0
  4  6  1  0
  6  7  1  0
  7  8  1  0
  8  9  1  0
  9 10  1  0
 10 11  1  1
 11 12  2  0
 11 13  1  0
 13 14  1  0
 14 15  2  0
 15 16  1  0
 16 17  2  0
 17 18  1  0
 18 19  2  0
 19 20  1  0
 20 21  1  0
 20 22  2  0
 22 23  1  0
 23 24  2  0
 10  6  1  0
 24 14  1  0
 24 18  1  0
M  END
>  <ref_pdb>  (191) 
x0554_0A

>  <ref_mols>  (191) 
x0554_0A,x0566_0A

>  <original SMILES>  (191) 
CCCC(=O)N1CCC[C@@H]1C(=O)Nc1cccc2nc(Cl)ccc12

>  <IC50 (nM)>  (191) 
1219.7757639654217

>  <CNNaffinity>  (191) 
5.91372

>  <rationale>  (191) 
-1

$$$$
PV_006775886411
     RDKit          3D

 27 29  0  0  0  0  0  0  0  0999 V2000
    8.4685   19.7964   18.9692 C   0  0  0  0  0  0  0  0  0  0  0  0
    8.5174   18.4038   18.7003 O   0  0  0  0  0  0  0  0  0  0  0  0
    9.4746   17.6896   19.3775 C   0  0  0  0  0  0  0  0  0  0  0  0
    9.4073   17.5698   20.7685 C   0  0  0  0  0  0  0  0  0  0  0  0
   10.3373   16.8200   21.4909 C   0  0  0  0  0  0  0  0  0  0  0  0
   11.3989   16.2096   20.8117 C   0  0  0  0  0  0  0  0  0  0  0  0
   12.5148   15.5048   21.5695 C   0  0  2  0  0  0  0  0  0  0  0  0
   13.7577   15.6437   20.9141 O   0  0  0  0  0  0  0  0  0  0  0  0
   12.2957   14.0043   21.7227 C   0  0  0  0  0  0  0  0  0  0  0  0
   11.2476   13.6865   22.7585 C   0  0  0  0  0  0  0  0  0  0  0  0
   10.9106   14.5064   23.5975 O   0  0  0  0  0  0  0  0  0  0  0  0
   10.7501   12.4130   22.7144 N   0  0  0  0  0  0  0  0  0  0  0  0
    9.8105   11.8297   23.5785 C   0  0  0  0  0  0  0  0  0  0  0  0
    8.9443   12.6088   24.3200 C   0  0  0  0  0  0  0  0  0  0  0  0
    7.9651   12.0212   25.1608 C   0  0  0  0  0  0  0  0  0  0  0  0
    7.8609   10.6521   25.2461 C   0  0  0  0  0  0  0  0  0  0  0  0
    8.7343    9.8239   24.4892 C   0  0  0  0  0  0  0  0  0  0  0  0
    8.5255    8.4764   24.5970 N   0  0  0  0  0  0  0  0  0  0  0  0
    9.2561    7.6929   23.8732 C   0  0  0  0  0  0  0  0  0  0  0  0
    8.7936    6.0053   23.8289 Cl  0  0  0  0  0  0  0  0  0  0  0  0
   10.3677    8.1162   23.0912 C   0  0  0  0  0  0  0  0  0  0  0  0
   10.6014    9.4636   22.9779 C   0  0  0  0  0  0  0  0  0  0  0  0
    9.7434   10.3930   23.6523 C   0  0  0  0  0  0  0  0  0  0  0  0
   11.4315   16.2625   19.4070 C   0  0  0  0  0  0  0  0  0  0  0  0
   10.4784   16.9719   18.6690 C   0  0  0  0  0  0  0  0  0  0  0  0
   10.4923   17.0453   17.3085 O   0  0  0  0  0  0  0  0  0  0  0  0
   11.2657   16.1082   16.5851 C   0  0  0  0  0  0  0  0  0  0  0  0
  1  2  1  0
  2  3  1  0
  3  4  2  0
  4  5  1  0
  5  6  2  0
  6  7  1  0
  7  8  1  6
  7  9  1  0
  9 10  1  0
 10 11  2  0
 10 12  1  0
 12 13  1  0
 13 14  2  0
 14 15  1  0
 15 16  2  0
 16 17  1  0
 17 18  2  0
 18 19  1  0
 19 20  1  0
 19 21  2  0
 21 22  1  0
 22 23  2  0
  6 24  1  0
 24 25  2  0
 25 26  1  0
 26 27  1  0
 25  3  1  0
 23 13  1  0
 23 17  1  0
M  END
>  <ref_pdb>  (192) 
x0554_0A

>  <ref_mols>  (192) 
x0554_0A,x0566_0A

>  <original SMILES>  (192) 
COc1ccc([C@H](O)CC(=O)Nc2cccc3nc(Cl)ccc23)cc1OC

>  <IC50 (nM)>  (192) 
1224.2214932668478

>  <CNNaffinity>  (192) 
5.91214

>  <rationale>  (192) 
-1

$$$$
Z3632724617
     RDKit          3D

 21 22  0  0  0  0  0  0  0  0999 V2000
   12.8871   15.0586   19.5762 C   0  0  0  0  0  0  0  0  0  0  0  0
   11.8004   14.9493   20.6378 C   0  0  0  0  0  0  0  0  0  0  0  0
   11.2648   16.3232   21.0624 C   0  0  0  0  0  0  0  0  0  0  0  0
   12.3795   14.2092   21.8520 C   0  0  0  0  0  0  0  0  0  0  0  0
   11.2837   13.8945   22.8365 C   0  0  0  0  0  0  0  0  0  0  0  0
   10.9759   14.6908   23.7068 O   0  0  0  0  0  0  0  0  0  0  0  0
   10.6771   12.6862   22.6433 N   0  0  0  0  0  0  0  0  0  0  0  0
    9.8063   12.0297   23.5269 C   0  0  0  0  0  0  0  0  0  0  0  0
    8.9715   12.7552   24.3483 C   0  0  0  0  0  0  0  0  0  0  0  0
    8.0203   12.1055   25.1782 C   0  0  0  0  0  0  0  0  0  0  0  0
    7.9169   10.7358   25.1650 C   0  0  0  0  0  0  0  0  0  0  0  0
    8.7778    9.9646   24.3414 C   0  0  0  0  0  0  0  0  0  0  0  0
    8.5794    8.6104   24.3664 N   0  0  0  0  0  0  0  0  0  0  0  0
    9.3721    7.8772   23.6580 C   0  0  0  0  0  0  0  0  0  0  0  0
    8.9820    6.1762   23.5216 Cl  0  0  0  0  0  0  0  0  0  0  0  0
   10.5097    8.3590   22.9490 C   0  0  0  0  0  0  0  0  0  0  0  0
   10.6986    9.7188   22.8768 C   0  0  0  0  0  0  0  0  0  0  0  0
    9.7830   10.5932   23.5442 C   0  0  0  0  0  0  0  0  0  0  0  0
   10.6868   14.0706   20.1173 N   0  0  0  0  0  0  0  0  0  0  0  0
   10.0646   14.6172   19.2098 N   0  0  0  0  0  4  0  0  0  0  0  0
    9.4508   15.1048   18.3935 N   0  0  0  0  0  2  0  0  0  0  0  0
  1  2  1  0
  2  3  1  0
  2  4  1  0
  4  5  1  0
  5  6  2  0
  5  7  1  0
  7  8  1  0
  8  9  2  0
  9 10  1  0
 10 11  2  0
 11 12  1  0
 12 13  2  0
 13 14  1  0
 14 15  1  0
 14 16  2  0
 16 17  1  0
 17 18  2  0
  2 19  1  0
 19 20  2  0
 20 21  2  0
 18  8  1  0
 18 12  1  0
M  CHG  2  20   1  21  -1
M  END
>  <ref_pdb>  (193) 
x0554_0A

>  <ref_mols>  (193) 
x0554_0A,x0566_0A

>  <original SMILES>  (193) 
CC(C)(CC(=O)Nc1cccc2nc(Cl)ccc12)N=[N+]=[N-]

>  <IC50 (nM)>  (193) 
1225.208496885218

>  <CNNaffinity>  (193) 
5.91179

>  <rationale>  (193) 
-1

$$$$
Z3091962981
     RDKit          3D

 23 26  0  0  0  0  0  0  0  0999 V2000
    8.5872   14.0499   21.9945 O   0  0  0  0  0  0  0  0  0  0  0  0
    9.6330   13.4734   22.1676 C   0  0  0  0  0  0  0  0  0  0  0  0
    9.7705   12.3519   22.9500 N   0  0  0  0  0  0  0  0  0  0  0  0
    8.8477   11.6930   23.7652 C   0  0  0  0  0  0  0  0  0  0  0  0
    7.8719   12.3566   24.4702 C   0  0  0  0  0  0  0  0  0  0  0  0
    7.1240   11.6730   25.4699 C   0  0  0  0  0  0  0  0  0  0  0  0
    7.3589   10.3393   25.7178 C   0  0  0  0  0  0  0  0  0  0  0  0
    8.2895    9.6183   24.9215 C   0  0  0  0  0  0  0  0  0  0  0  0
    8.3537    8.2646   25.1322 N   0  0  0  0  0  0  0  0  0  0  0  0
    8.9827    7.5601   24.2496 C   0  0  0  0  0  0  0  0  0  0  0  0
    8.6883    5.8345   24.2282 Cl  0  0  0  0  0  0  0  0  0  0  0  0
    9.8020    8.0876   23.2112 C   0  0  0  0  0  0  0  0  0  0  0  0
    9.8259    9.4484   23.0461 C   0  0  0  0  0  0  0  0  0  0  0  0
    9.0324   10.2770   23.9019 C   0  0  0  0  0  0  0  0  0  0  0  0
   11.0098   13.8959   21.6375 C   0  0  2  0  0  0  0  0  0  0  0  0
   11.7745   14.7730   22.6526 C   0  0  0  0  0  0  0  0  0  0  0  0
   13.1656   14.9778   22.0687 C   0  0  0  0  0  0  0  0  0  0  0  0
   13.0965   15.8089   20.7865 C   0  0  0  0  0  0  0  0  0  0  0  0
   12.0070   15.3542   19.8674 C   0  0  0  0  0  0  0  0  0  0  0  0
   11.8061   15.6392   18.5978 N   0  0  0  0  0  0  0  0  0  0  0  0
   10.6706   14.9342   18.3294 C   0  0  0  0  0  0  0  0  0  0  0  0
   10.1644   14.2490   19.3360 N   0  0  0  0  0  0  0  0  0  0  0  0
   11.0124   14.5563   20.3345 N   0  0  0  0  0  0  0  0  0  0  0  0
  1  2  2  0
  2  3  1  0
  3  4  1  0
  4  5  2  0
  5  6  1  0
  6  7  2  0
  7  8  1  0
  8  9  2  0
  9 10  1  0
 10 11  1  0
 10 12  2  0
 12 13  1  0
 13 14  2  0
 15  2  1  1
 15 16  1  0
 16 17  1  0
 17 18  1  0
 18 19  1  0
 19 20  2  0
 20 21  1  0
 21 22  2  0
 22 23  1  0
 14  4  1  0
 23 15  1  0
 14  8  1  0
 23 19  1  0
M  END
>  <ref_pdb>  (194) 
x0554_0A

>  <ref_mols>  (194) 
x0554_0A,x0566_0A

>  <original SMILES>  (194) 
O=C(Nc1cccc2nc(Cl)ccc12)[C@@H]1CCCc2ncnn21

>  <IC50 (nM)>  (194) 
1228.2025648999215

>  <CNNaffinity>  (194) 
5.91073

>  <rationale>  (194) 
-1

$$$$
Z4166552842
     RDKit          3D

 23 26  0  0  0  0  0  0  0  0999 V2000
   10.7048   14.8443   23.4335 O   0  0  0  0  0  0  0  0  0  0  0  0
   11.2664   13.9715   22.8157 C   0  0  0  0  0  0  0  0  0  0  0  0
   12.5728   14.2414   22.1772 C   0  0  0  0  0  0  0  0  0  0  0  0
   12.3815   15.6859   21.2019 S   0  0  0  0  0  6  0  0  0  0  0  0
   13.7153   15.9558   20.6924 O   0  0  0  0  0  0  0  0  0  0  0  0
   11.5805   16.7253   21.8121 O   0  0  0  0  0  0  0  0  0  0  0  0
   11.4027   14.9731   19.8343 C   0  0  0  0  0  0  0  0  0  0  0  0
    9.9796   14.3609   19.7904 C   0  0  0  0  0  0  0  0  0  0  0  0
   10.4829   14.1163   18.3807 C   0  0  0  0  0  0  0  0  0  0  0  0
   11.5555   13.6952   19.2222 C   0  0  0  0  0  0  0  0  0  0  0  0
   11.2447   15.4285   18.3899 C   0  0  0  0  0  0  0  0  0  0  0  0
   10.8034   12.6919   22.6784 N   0  0  0  0  0  0  0  0  0  0  0  0
    9.8539   12.0502   23.5026 C   0  0  0  0  0  0  0  0  0  0  0  0
    8.9689   12.7845   24.2683 C   0  0  0  0  0  0  0  0  0  0  0  0
    8.0065   12.1476   25.0933 C   0  0  0  0  0  0  0  0  0  0  0  0
    7.9178   10.7780   25.1206 C   0  0  0  0  0  0  0  0  0  0  0  0
    8.7970    9.9961   24.3273 C   0  0  0  0  0  0  0  0  0  0  0  0
    8.5812    8.6452   24.3679 N   0  0  0  0  0  0  0  0  0  0  0  0
    9.3567    7.8926   23.6595 C   0  0  0  0  0  0  0  0  0  0  0  0
    8.9342    6.1992   23.5362 Cl  0  0  0  0  0  0  0  0  0  0  0  0
   10.4964    8.3526   22.9422 C   0  0  0  0  0  0  0  0  0  0  0  0
   10.7156    9.7057   22.8725 C   0  0  0  0  0  0  0  0  0  0  0  0
    9.8195   10.6088   23.5355 C   0  0  0  0  0  0  0  0  0  0  0  0
  1  2  2  0
  2  3  1  0
  3  4  1  0
  4  5  2  0
  4  6  2  0
  4  7  1  0
  7  8  1  0
  8  9  1  0
  9 10  1  0
  9 11  1  0
  2 12  1  0
 12 13  1  0
 13 14  2  0
 14 15  1  0
 15 16  2  0
 16 17  1  0
 17 18  2  0
 18 19  1  0
 19 20  1  0
 19 21  2  0
 21 22  1  0
 22 23  2  0
 10  7  1  0
 23 13  1  0
 11  7  1  0
 23 17  1  0
M  END
>  <ref_pdb>  (195) 
x0554_0A

>  <ref_mols>  (195) 
x0554_0A,x0566_0A

>  <original SMILES>  (195) 
O=C(CS(=O)(=O)C12CC(C1)C2)Nc1cccc2nc(Cl)ccc12

>  <IC50 (nM)>  (195) 
1232.9344852679742

>  <CNNaffinity>  (195) 
5.90906

>  <rationale>  (195) 
-1

$$$$
Z3207006262
     RDKit          3D

 25 28  0  0  0  0  0  0  0  0999 V2000
   10.4075   14.5618   23.1700 O   0  0  0  0  0  0  0  0  0  0  0  0
   10.8898   13.6625   22.5020 C   0  0  0  0  0  0  0  0  0  0  0  0
   10.5235   12.3463   22.6281 N   0  0  0  0  0  0  0  0  0  0  0  0
    9.6340   11.7798   23.5507 C   0  0  0  0  0  0  0  0  0  0  0  0
    8.7770   12.5525   24.3063 C   0  0  0  0  0  0  0  0  0  0  0  0
    7.8715   11.9552   25.2203 C   0  0  0  0  0  0  0  0  0  0  0  0
    7.8355   10.5874   25.3575 C   0  0  0  0  0  0  0  0  0  0  0  0
    8.6936    9.7671   24.5792 C   0  0  0  0  0  0  0  0  0  0  0  0
    8.5210    8.4160   24.7184 N   0  0  0  0  0  0  0  0  0  0  0  0
    9.2259    7.6439   23.9589 C   0  0  0  0  0  0  0  0  0  0  0  0
    8.7898    5.9470   23.9262 Cl  0  0  0  0  0  0  0  0  0  0  0  0
   10.2994    8.0815   23.1310 C   0  0  0  0  0  0  0  0  0  0  0  0
   10.4959    9.4317   22.9904 C   0  0  0  0  0  0  0  0  0  0  0  0
    9.6359   10.3467   23.6780 C   0  0  0  0  0  0  0  0  0  0  0  0
   12.0117   13.9506   21.4669 C   0  0  2  0  0  0  0  0  0  0  0  0
   12.9675   15.0524   21.9627 C   0  0  0  0  0  0  0  0  0  0  0  0
   12.3919   16.3052   21.3104 C   0  0  0  0  0  0  0  0  0  0  0  0
   11.8905   15.7673   19.9740 C   0  0  2  0  0  0  0  0  0  0  0  0
   10.7361   16.5542   19.3450 C   0  0  0  0  0  0  0  0  0  0  0  0
   10.2588   15.9588   18.1088 N   0  0  0  0  0  0  0  0  0  0  0  0
   10.8963   16.0184   16.8898 C   0  0  0  0  0  0  0  0  0  0  0  0
   10.3436   15.0256   16.1396 C   0  0  0  0  0  0  0  0  0  0  0  0
    9.3682   14.3612   16.8444 N   0  0  0  0  0  0  0  0  0  0  0  0
    9.3586   14.9376   18.0179 C   0  0  0  0  0  0  0  0  0  0  0  0
   11.4220   14.4484   20.2646 O   0  0  0  0  0  0  0  0  0  0  0  0
  1  2  2  0
  2  3  1  0
  3  4  1  0
  4  5  2  0
  5  6  1  0
  6  7  2  0
  7  8  1  0
  8  9  2  0
  9 10  1  0
 10 11  1  0
 10 12  2  0
 12 13  1  0
 13 14  2  0
 15  2  1  1
 15 16  1  0
 16 17  1  0
 17 18  1  0
 18 19  1  1
 19 20  1  0
 20 21  1  0
 21 22  2  0
 22 23  1  0
 23 24  2  0
 18 25  1  0
 14  4  1  0
 25 15  1  0
 14  8  1  0
 24 20  1  0
M  END
>  <ref_pdb>  (196) 
x0554_0A

>  <ref_mols>  (196) 
x0554_0A,x0566_0A

>  <original SMILES>  (196) 
O=C(Nc1cccc2nc(Cl)ccc12)[C@@H]1CC[C@H](Cn2ccnc2)O1

>  <IC50 (nM)>  (196) 
1235.2646123396971

>  <CNNaffinity>  (196) 
5.90824

>  <rationale>  (196) 
-1

$$$$
Z3584328903
     RDKit          3D

 24 26  0  0  0  0  0  0  0  0999 V2000
    9.5051   16.9218   18.4068 C   0  0  0  0  0  0  0  0  0  0  0  0
   10.8828   16.5118   17.7427 C   0  0  0  0  0  0  0  0  0  0  0  0
   11.7117   17.5997   17.5518 C   0  0  0  0  0  0  0  0  0  0  0  0
   10.5599   15.8064   16.3520 C   0  0  0  0  0  0  0  0  0  0  0  0
   11.4998   15.4511   18.6718 N   0  0  0  0  0  0  0  0  0  0  0  0
   11.6416   15.5939   20.0147 C   0  0  0  0  0  0  0  0  0  0  0  0
   12.1858   14.4327   20.5101 C   0  0  0  0  0  0  0  0  0  0  0  0
   12.4686   14.1203   21.9627 C   0  0  0  0  0  0  0  0  0  0  0  0
   11.2411   13.8925   22.8652 C   0  0  0  0  0  0  0  0  0  0  0  0
   10.8052   14.7663   23.5879 O   0  0  0  0  0  0  0  0  0  0  0  0
   10.7231   12.6258   22.7948 N   0  0  0  0  0  0  0  0  0  0  0  0
    9.8053   11.9901   23.6439 C   0  0  0  0  0  0  0  0  0  0  0  0
    8.9385   12.7040   24.4421 C   0  0  0  0  0  0  0  0  0  0  0  0
    7.9700   12.0379   25.2443 C   0  0  0  0  0  0  0  0  0  0  0  0
    7.8816   10.6644   25.2226 C   0  0  0  0  0  0  0  0  0  0  0  0
    8.7666    9.9063   24.4097 C   0  0  0  0  0  0  0  0  0  0  0  0
    8.5760    8.5499   24.4131 N   0  0  0  0  0  0  0  0  0  0  0  0
    9.3623    7.8324   23.6800 C   0  0  0  0  0  0  0  0  0  0  0  0
    8.9753    6.1349   23.5073 Cl  0  0  0  0  0  0  0  0  0  0  0  0
   10.4937    8.3285   22.9754 C   0  0  0  0  0  0  0  0  0  0  0  0
   10.6894    9.6869   22.9450 C   0  0  0  0  0  0  0  0  0  0  0  0
    9.7784   10.5499   23.6358 C   0  0  0  0  0  0  0  0  0  0  0  0
   12.3922   13.6539   19.3495 C   0  0  0  0  0  0  0  0  0  0  0  0
   11.9744   14.2716   18.2532 N   0  0  0  0  0  0  0  0  0  0  0  0
  1  2  1  0
  2  3  1  0
  2  4  1  0
  2  5  1  0
  5  6  1  0
  6  7  2  0
  7  8  1  0
  8  9  1  0
  9 10  2  0
  9 11  1  0
 11 12  1  0
 12 13  2  0
 13 14  1  0
 14 15  2  0
 15 16  1  0
 16 17  2  0
 17 18  1  0
 18 19  1  0
 18 20  2  0
 20 21  1  0
 21 22  2  0
  7 23  1  0
 23 24  2  0
 24  5  1  0
 22 12  1  0
 22 16  1  0
M  END
>  <ref_pdb>  (197) 
x0554_0A

>  <ref_mols>  (197) 
x0554_0A,x0566_0A

>  <original SMILES>  (197) 
CC(C)(C)n1cc(CC(=O)Nc2cccc3nc(Cl)ccc23)cn1

>  <IC50 (nM)>  (197) 
1240.0522937284431

>  <CNNaffinity>  (197) 
5.90656

>  <rationale>  (197) 
-1

$$$$
PV_002098192708
     RDKit          3D

 26 28  0  0  0  0  0  0  0  0999 V2000
    9.3702   15.0863   23.6197 O   0  0  0  0  0  0  0  0  0  0  0  0
   10.0833   14.2603   23.0885 C   0  0  0  0  0  0  0  0  0  0  0  0
    9.7847   12.9234   22.9869 N   0  0  0  0  0  0  0  0  0  0  0  0
    9.0687   12.1114   23.8719 C   0  0  0  0  0  0  0  0  0  0  0  0
    8.1381   12.6153   24.7507 C   0  0  0  0  0  0  0  0  0  0  0  0
    7.4123   11.7390   25.6069 C   0  0  0  0  0  0  0  0  0  0  0  0
    7.6095   10.3777   25.5369 C   0  0  0  0  0  0  0  0  0  0  0  0
    8.5353    9.8377   24.6023 C   0  0  0  0  0  0  0  0  0  0  0  0
    8.5814    8.4715   24.4989 N   0  0  0  0  0  0  0  0  0  0  0  0
    9.3911    7.9685   23.6230 C   0  0  0  0  0  0  0  0  0  0  0  0
    9.2258    6.2657   23.2607 Cl  0  0  0  0  0  0  0  0  0  0  0  0
   10.3664    8.7081   22.8943 C   0  0  0  0  0  0  0  0  0  0  0  0
   10.3463   10.0744   22.9927 C   0  0  0  0  0  0  0  0  0  0  0  0
    9.3394   10.7019   23.8016 C   0  0  0  0  0  0  0  0  0  0  0  0
   11.4844   14.6384   22.4895 C   0  0  1  0  0  0  0  0  0  0  0  0
   12.6287   13.7146   23.0348 C   0  0  0  0  0  0  0  0  0  0  0  0
   12.8556   12.7826   21.9161 C   0  0  0  0  0  0  0  0  0  0  0  0
   12.4812   13.4081   20.6948 C   0  0  0  0  0  0  0  0  0  0  0  0
   12.7695   13.0967   19.5408 O   0  0  0  0  0  0  0  0  0  0  0  0
   11.6643   14.4845   21.0433 N   0  0  0  0  0  0  0  0  0  0  0  0
   10.8906   15.1977   20.0542 C   0  0  0  0  0  0  0  0  0  0  0  0
   11.8519   15.7675   19.0181 C   0  0  0  0  0  0  0  0  0  0  0  0
   11.1850   16.5565   17.9434 C   0  0  0  0  0  0  0  0  0  0  0  0
   12.1068   17.0557   17.1043 F   0  0  0  0  0  0  0  0  0  0  0  0
   10.4689   17.5886   18.4290 F   0  0  0  0  0  0  0  0  0  0  0  0
   10.3347   15.7975   17.2225 F   0  0  0  0  0  0  0  0  0  0  0  0
  1  2  2  0
  2  3  1  0
  3  4  1  0
  4  5  2  0
  5  6  1  0
  6  7  2  0
  7  8  1  0
  8  9  2  0
  9 10  1  0
 10 11  1  0
 10 12  2  0
 12 13  1  0
 13 14  2  0
 15  2  1  1
 15 16  1  0
 16 17  1  0
 17 18  1  0
 18 19  2  0
 18 20  1  0
 20 21  1  0
 21 22  1  0
 22 23  1  0
 23 24  1  0
 23 25  1  0
 23 26  1  0
 14  4  1  0
 20 15  1  0
 14  8  1  0
M  END
>  <ref_pdb>  (198) 
x0554_0A

>  <ref_mols>  (198) 
x0554_0A,x0566_0A

>  <original SMILES>  (198) 
O=C(Nc1cccc2nc(Cl)ccc12)[C@H]1CCC(=O)N1CCC(F)(F)F

>  <IC50 (nM)>  (198) 
1242.8822907426977

>  <CNNaffinity>  (198) 
5.90557

>  <rationale>  (198) 
-1

$$$$
PV_002543722272
     RDKit          3D

 21 23  0  0  0  0  0  0  0  0999 V2000
   10.9985   16.3850   17.6970 C   0  0  0  0  0  0  0  0  0  0  0  0
   11.4160   15.4278   18.7679 C   0  0  0  0  0  0  0  0  0  0  0  0
   11.6622   15.6427   20.1078 C   0  0  0  0  0  0  0  0  0  0  0  0
   12.0887   14.3998   20.6184 C   0  0  0  0  0  0  0  0  0  0  0  0
   12.4562   14.0685   22.0178 C   0  0  0  0  0  0  0  0  0  0  0  0
   11.1888   13.8819   22.8251 C   0  0  0  0  0  0  0  0  0  0  0  0
   10.7070   14.7952   23.4611 O   0  0  0  0  0  0  0  0  0  0  0  0
   10.6549   12.6269   22.7283 N   0  0  0  0  0  0  0  0  0  0  0  0
    9.7767   11.9724   23.6077 C   0  0  0  0  0  0  0  0  0  0  0  0
    8.9231   12.6773   24.4294 C   0  0  0  0  0  0  0  0  0  0  0  0
    7.9785   12.0059   25.2573 C   0  0  0  0  0  0  0  0  0  0  0  0
    7.9037   10.6305   25.2384 C   0  0  0  0  0  0  0  0  0  0  0  0
    8.7824    9.8799   24.4113 C   0  0  0  0  0  0  0  0  0  0  0  0
    8.5960    8.5231   24.4044 N   0  0  0  0  0  0  0  0  0  0  0  0
    9.3836    7.8166   23.6590 C   0  0  0  0  0  0  0  0  0  0  0  0
    9.0036    6.1213   23.4708 Cl  0  0  0  0  0  0  0  0  0  0  0  0
   10.5138    8.3231   22.9610 C   0  0  0  0  0  0  0  0  0  0  0  0
   10.6989    9.6814   22.9371 C   0  0  0  0  0  0  0  0  0  0  0  0
    9.7772   10.5342   23.6245 C   0  0  0  0  0  0  0  0  0  0  0  0
   12.1029   13.4809   19.6764 N   0  0  0  0  0  0  0  0  0  0  0  0
   11.6918   14.1137   18.5638 N   0  0  0  0  0  0  0  0  0  0  0  0
  1  2  1  0
  2  3  2  0
  3  4  1  0
  4  5  1  0
  5  6  1  0
  6  7  2  0
  6  8  1  0
  8  9  1  0
  9 10  2  0
 10 11  1  0
 11 12  2  0
 12 13  1  0
 13 14  2  0
 14 15  1  0
 15 16  1  0
 15 17  2  0
 17 18  1  0
 18 19  2  0
  4 20  2  0
 20 21  1  0
 21  2  1  0
 19  9  1  0
 19 13  1  0
M  END
>  <ref_pdb>  (199) 
x0554_0A

>  <ref_mols>  (199) 
x0554_0A,x0566_0A

>  <original SMILES>  (199) 
Cc1cc(CC(=O)Nc2cccc3nc(Cl)ccc23)n[nH]1

>  <IC50 (nM)>  (199) 
1246.780496643243

>  <CNNaffinity>  (199) 
5.90421

>  <rationale>  (199) 
-1

$$$$
Z3143281061
     RDKit          3D

 24 26  0  0  0  0  0  0  0  0999 V2000
   12.2486   16.4497   17.7003 N   0  0  0  0  0  0  0  0  0  0  0  0
   11.2656   16.6283   18.8070 C   0  0  1  0  0  0  0  0  0  0  0  0
    9.9468   16.0103   18.3028 C   0  0  0  0  0  0  0  0  0  0  0  0
   10.0262   14.5426   17.8711 C   0  0  0  0  0  0  0  0  0  0  0  0
   10.5732   13.5714   18.9278 C   0  0  0  0  0  0  0  0  0  0  0  0
   12.0173   13.8385   19.3788 C   0  0  0  0  0  0  0  0  0  0  0  0
   12.0574   14.8062   20.4800 N   0  0  0  0  0  0  0  0  0  0  0  0
   12.3927   14.3779   21.8549 C   0  0  0  0  0  0  0  0  0  0  0  0
   11.2841   13.9298   22.8525 C   0  0  0  0  0  0  0  0  0  0  0  0
   10.9681   14.6585   23.7749 O   0  0  0  0  0  0  0  0  0  0  0  0
   10.7741   12.6631   22.7034 N   0  0  0  0  0  0  0  0  0  0  0  0
    9.8652   12.0144   23.5672 C   0  0  0  0  0  0  0  0  0  0  0  0
    8.9983   12.7417   24.3557 C   0  0  0  0  0  0  0  0  0  0  0  0
    8.0131   12.1014   25.1501 C   0  0  0  0  0  0  0  0  0  0  0  0
    7.9133   10.7321   25.1539 C   0  0  0  0  0  0  0  0  0  0  0  0
    8.8017    9.9566   24.3642 C   0  0  0  0  0  0  0  0  0  0  0  0
    8.5878    8.6055   24.3919 N   0  0  0  0  0  0  0  0  0  0  0  0
    9.3647    7.8575   23.6806 C   0  0  0  0  0  0  0  0  0  0  0  0
    8.9384    6.1645   23.5487 Cl  0  0  0  0  0  0  0  0  0  0  0  0
   10.5065    8.3219   22.9689 C   0  0  0  0  0  0  0  0  0  0  0  0
   10.7238    9.6778   22.9089 C   0  0  0  0  0  0  0  0  0  0  0  0
    9.8293   10.5733   23.5826 C   0  0  0  0  0  0  0  0  0  0  0  0
   11.6178   16.1066   20.2725 C   0  0  0  0  0  0  0  0  0  0  0  0
   11.4592   16.8745   21.2135 O   0  0  0  0  0  0  0  0  0  0  0  0
  2  1  1  6
  2  3  1  0
  3  4  1  0
  4  5  1  0
  5  6  1  0
  6  7  1  0
  7  8  1  0
  8  9  1  0
  9 10  2  0
  9 11  1  0
 11 12  1  0
 12 13  2  0
 13 14  1  0
 14 15  2  0
 15 16  1  0
 16 17  2  0
 17 18  1  0
 18 19  1  0
 18 20  2  0
 20 21  1  0
 21 22  2  0
  7 23  1  0
 23 24  2  0
 23  2  1  0
 22 12  1  0
 22 16  1  0
M  END
>  <ref_pdb>  (200) 
x0554_0A

>  <ref_mols>  (200) 
x0554_0A,x0566_0A

>  <original SMILES>  (200) 
N[C@H]1CCCCN(CC(=O)Nc2cccc3nc(Cl)ccc23)C1=O

>  <IC50 (nM)>  (200) 
1247.555858548899

>  <CNNaffinity>  (200) 
5.90394

>  <rationale>  (200) 
-1

$$$$
Z5515280735
     RDKit          3D

 23 25  0  0  0  0  0  0  0  0999 V2000
   13.2759   15.1021   22.4003 C   0  0  0  0  0  0  0  0  0  0  0  0
   12.1457   14.3485   21.6777 C   0  0  1  0  0  0  0  0  0  0  0  0
   11.0105   14.0187   22.6361 C   0  0  0  0  0  0  0  0  0  0  0  0
   10.3697   14.9031   23.1786 O   0  0  0  0  0  0  0  0  0  0  0  0
   10.7658   12.6852   22.8138 N   0  0  0  0  0  0  0  0  0  0  0  0
    9.8246   12.0595   23.6379 C   0  0  0  0  0  0  0  0  0  0  0  0
    8.9431   12.7851   24.4149 C   0  0  0  0  0  0  0  0  0  0  0  0
    7.9633   12.1336   25.2085 C   0  0  0  0  0  0  0  0  0  0  0  0
    7.8761   10.7642   25.2072 C   0  0  0  0  0  0  0  0  0  0  0  0
    8.7706    9.9938   24.4176 C   0  0  0  0  0  0  0  0  0  0  0  0
    8.5633    8.6409   24.4393 N   0  0  0  0  0  0  0  0  0  0  0  0
    9.3399    7.9005   23.7192 C   0  0  0  0  0  0  0  0  0  0  0  0
    8.9298    6.2040   23.5829 Cl  0  0  0  0  0  0  0  0  0  0  0  0
   10.4714    8.3759   22.9994 C   0  0  0  0  0  0  0  0  0  0  0  0
   10.6864    9.7298   22.9515 C   0  0  0  0  0  0  0  0  0  0  0  0
    9.7961   10.6185   23.6423 C   0  0  0  0  0  0  0  0  0  0  0  0
   11.5578   15.2121   20.5375 C   0  0  1  0  0  0  0  0  0  0  0  0
   12.5588   15.4667   19.4109 C   0  0  0  0  0  0  0  0  0  0  0  0
   12.2937   14.3173   18.4467 C   0  0  0  0  0  0  0  0  0  0  0  0
   10.8028   14.0730   18.6074 C   0  0  0  0  0  0  0  0  0  0  0  0
   10.0412   13.5985   17.7882 O   0  0  0  0  0  0  0  0  0  0  0  0
   10.4592   14.5641   19.8406 N   0  0  0  0  0  0  0  0  0  0  0  0
    9.1065   14.5967   20.3547 C   0  0  0  0  0  0  0  0  0  0  0  0
  2  1  1  1
  2  3  1  0
  3  4  2  0
  3  5  1  0
  5  6  1  0
  6  7  2  0
  7  8  1  0
  8  9  2  0
  9 10  1  0
 10 11  2  0
 11 12  1  0
 12 13  1  0
 12 14  2  0
 14 15  1  0
 15 16  2  0
  2 17  1  0
 17 18  1  6
 18 19  1  0
 19 20  1  0
 20 21  2  0
 20 22  1  0
 22 23  1  0
 16  6  1  0
 22 17  1  0
 16 10  1  0
M  END
>  <ref_pdb>  (201) 
x0554_0A

>  <ref_mols>  (201) 
x0554_0A,x0566_0A

>  <original SMILES>  (201) 
C[C@@H](C(=O)Nc1cccc2nc(Cl)ccc12)[C@H]1CCC(=O)N1C

>  <IC50 (nM)>  (201) 
1247.642039631133

>  <CNNaffinity>  (201) 
5.90391

>  <rationale>  (201) 
-1

$$$$
Z3091962628
     RDKit          3D

 25 26  0  0  0  0  0  0  0  0999 V2000
   10.9842   15.3936   18.6571 C   0  0  0  0  0  0  0  0  0  0  0  0
   11.1847   15.3197   20.1733 C   0  0  0  0  0  0  0  0  0  0  0  0
   12.2467   14.3111   20.6202 C   0  0  0  0  0  0  0  0  0  0  0  0
   12.3576   14.1733   22.1789 C   0  0  2  0  0  0  0  0  0  0  0  0
   13.2365   13.0924   22.6570 C   0  0  0  0  0  0  0  0  0  0  0  0
   13.9457   13.1542   23.8990 C   0  0  0  0  0  0  0  0  0  0  0  0
   13.0845   12.7584   25.1682 C   0  0  0  0  0  0  0  0  0  0  0  0
   14.0270   12.3854   26.6380 S   0  0  0  0  0  6  0  0  0  0  0  0
   15.2367   11.2220   26.1046 C   0  0  0  0  0  0  0  0  0  0  0  0
   13.1296   11.6721   27.5328 O   0  0  0  0  0  0  0  0  0  0  0  0
   14.7674   13.5616   27.0750 O   0  0  0  0  0  0  0  0  0  0  0  0
   10.9680   13.9756   22.8688 C   0  0  0  0  0  0  0  0  0  0  0  0
   10.4164   14.8741   23.4708 O   0  0  0  0  0  0  0  0  0  0  0  0
   10.4253   12.7182   22.7274 N   0  0  0  0  0  0  0  0  0  0  0  0
    9.6052   12.0351   23.6328 C   0  0  0  0  0  0  0  0  0  0  0  0
    8.7497   12.7126   24.4727 C   0  0  0  0  0  0  0  0  0  0  0  0
    7.8715   12.0038   25.3328 C   0  0  0  0  0  0  0  0  0  0  0  0
    7.8391   10.6292   25.3088 C   0  0  0  0  0  0  0  0  0  0  0  0
    8.7126    9.9110   24.4485 C   0  0  0  0  0  0  0  0  0  0  0  0
    8.5702    8.5485   24.4431 N   0  0  0  0  0  0  0  0  0  0  0  0
    9.3704    7.8648   23.6920 C   0  0  0  0  0  0  0  0  0  0  0  0
    9.0275    6.1598   23.4910 Cl  0  0  0  0  0  0  0  0  0  0  0  0
   10.4785    8.4060   22.9809 C   0  0  0  0  0  0  0  0  0  0  0  0
   10.6162    9.7704   22.9491 C   0  0  0  0  0  0  0  0  0  0  0  0
    9.6703   10.5975   23.6423 C   0  0  0  0  0  0  0  0  0  0  0  0
  1  2  1  0
  2  3  1  0
  4  3  1  6
  4  5  1  0
  5  6  1  0
  6  7  1  0
  7  8  1  0
  8  9  1  0
  8 10  2  0
  8 11  2  0
  4 12  1  0
 12 13  2  0
 12 14  1  0
 14 15  1  0
 15 16  2  0
 16 17  1  0
 17 18  2  0
 18 19  1  0
 19 20  2  0
 20 21  1  0
 21 22  1  0
 21 23  2  0
 23 24  1  0
 24 25  2  0
 25 15  1  0
 25 19  1  0
M  END
>  <ref_pdb>  (202) 
x0554_0A

>  <ref_mols>  (202) 
x0554_0A,x0566_0A

>  <original SMILES>  (202) 
CCC[C@H](CCCS(C)(=O)=O)C(=O)Nc1cccc2nc(Cl)ccc12

>  <IC50 (nM)>  (202) 
1250.8637302442553

>  <CNNaffinity>  (202) 
5.90279

>  <rationale>  (202) 
-1

$$$$
PV_007063978565
     RDKit          3D

 23 26  0  0  0  0  0  0  0  0999 V2000
   10.0480   14.8321   23.3024 O   0  0  0  0  0  0  0  0  0  0  0  0
   10.5808   13.9258   22.6981 C   0  0  0  0  0  0  0  0  0  0  0  0
   10.1353   12.6242   22.7002 N   0  0  0  0  0  0  0  0  0  0  0  0
    9.3033   11.9969   23.6534 C   0  0  0  0  0  0  0  0  0  0  0  0
    8.3982   12.7387   24.3970 C   0  0  0  0  0  0  0  0  0  0  0  0
    7.5935   12.1147   25.3809 C   0  0  0  0  0  0  0  0  0  0  0  0
    7.6735   10.7544   25.5640 C   0  0  0  0  0  0  0  0  0  0  0  0
    8.5353    9.9723   24.7487 C   0  0  0  0  0  0  0  0  0  0  0  0
    8.4158    8.6192   24.9255 N   0  0  0  0  0  0  0  0  0  0  0  0
    9.0642    7.8497   24.1021 C   0  0  0  0  0  0  0  0  0  0  0  0
    8.6257    6.1472   24.1133 Cl  0  0  0  0  0  0  0  0  0  0  0  0
   10.0361    8.2590   23.1937 C   0  0  0  0  0  0  0  0  0  0  0  0
   10.3341    9.6730   23.0452 C   0  0  0  0  0  0  0  0  0  0  0  0
    9.4001   10.5879   23.8096 C   0  0  0  0  0  0  0  0  0  0  0  0
   11.8425   14.1125   21.8442 C   0  0  0  0  0  0  0  0  0  0  0  0
   11.5921   14.7832   20.5881 N   0  0  0  0  0  0  0  0  0  0  0  0
   11.7620   14.2627   19.3483 C   0  0  0  0  0  0  0  0  0  0  0  0
   11.3931   15.2529   18.4746 C   0  0  0  0  0  0  0  0  0  0  0  0
   11.3777   15.1735   16.7595 Cl  0  0  0  0  0  0  0  0  0  0  0  0
   11.0012   16.3377   19.2878 C   0  0  0  0  0  0  0  0  0  0  0  0
   11.1237   16.0367   20.5688 N   0  0  0  0  0  0  0  0  0  0  0  0
   12.9058   13.2086   22.0025 C   0  0  0  0  0  0  0  0  0  0  0  0
   13.1660   14.4642   22.6411 C   0  0  0  0  0  0  0  0  0  0  0  0
  1  2  2  0
  2  3  1  0
  3  4  1  0
  4  5  2  0
  5  6  1  0
  6  7  2  0
  7  8  1  0
  8  9  2  0
  9 10  1  0
 10 11  1  0
 10 12  2  0
 12 13  1  0
 13 14  2  0
  2 15  1  0
 15 16  1  0
 16 17  1  0
 17 18  2  0
 18 19  1  0
 18 20  1  0
 20 21  2  0
 15 22  1  0
 22 23  1  0
 14  4  1  0
 23 15  1  0
 14  8  1  0
 21 16  1  0
M  END
>  <ref_pdb>  (203) 
x0554_0A

>  <ref_mols>  (203) 
x0554_0A,x0566_0A

>  <original SMILES>  (203) 
O=C(Nc1cccc2nc(Cl)ccc12)C1(n2cc(Cl)cn2)CC1

>  <IC50 (nM)>  (203) 
1250.9789443571258

>  <CNNaffinity>  (203) 
5.90275

>  <rationale>  (203) 
-1

$$$$
PV_002205748532
     RDKit          3D

 26 28  0  0  0  0  0  0  0  0999 V2000
   10.6926   14.7876   23.5297 O   0  0  0  0  0  0  0  0  0  0  0  0
   11.1551   13.8983   22.8409 C   0  0  0  0  0  0  0  0  0  0  0  0
   12.3990   14.1265   21.9515 C   0  0  0  0  0  0  0  0  0  0  0  0
   12.1687   14.0170   20.5460 O   0  0  0  0  0  0  0  0  0  0  0  0
   11.4335   14.9580   19.8841 C   0  0  0  0  0  0  0  0  0  0  0  0
   10.9940   16.1742   20.4231 C   0  0  0  0  0  0  0  0  0  0  0  0
   10.2771   17.0550   19.6138 C   0  0  0  0  0  0  0  0  0  0  0  0
    9.9837   16.7396   18.2805 C   0  0  0  0  0  0  0  0  0  0  0  0
    9.2202   17.7012   17.4602 N   0  0  0  0  0  4  0  0  0  0  0  0
    8.9717   17.4147   16.3043 O   0  0  0  0  0  0  0  0  0  0  0  0
    8.8760   18.7478   17.9901 O   0  0  0  0  0  1  0  0  0  0  0  0
   10.4253   15.5050   17.7625 C   0  0  0  0  0  0  0  0  0  0  0  0
   10.1887   15.1345   16.5084 F   0  0  0  0  0  0  0  0  0  0  0  0
   11.1387   14.6280   18.5589 C   0  0  0  0  0  0  0  0  0  0  0  0
   10.6587   12.6235   22.7625 N   0  0  0  0  0  0  0  0  0  0  0  0
    9.7736   11.9712   23.6328 C   0  0  0  0  0  0  0  0  0  0  0  0
    8.9133   12.6761   24.4441 C   0  0  0  0  0  0  0  0  0  0  0  0
    7.9702   12.0003   25.2661 C   0  0  0  0  0  0  0  0  0  0  0  0
    7.8985   10.6256   25.2435 C   0  0  0  0  0  0  0  0  0  0  0  0
    8.7788    9.8763   24.4160 C   0  0  0  0  0  0  0  0  0  0  0  0
    8.5968    8.5189   24.4045 N   0  0  0  0  0  0  0  0  0  0  0  0
    9.3836    7.8143   23.6582 C   0  0  0  0  0  0  0  0  0  0  0  0
    9.0049    6.1163   23.4697 Cl  0  0  0  0  0  0  0  0  0  0  0  0
   10.5139    8.3245   22.9610 C   0  0  0  0  0  0  0  0  0  0  0  0
   10.6966    9.6836   22.9406 C   0  0  0  0  0  0  0  0  0  0  0  0
    9.7754   10.5332   23.6341 C   0  0  0  0  0  0  0  0  0  0  0  0
  1  2  2  0
  2  3  1  0
  3  4  1  0
  4  5  1  0
  5  6  2  0
  6  7  1  0
  7  8  2  0
  8  9  1  0
  9 10  2  0
  9 11  1  0
  8 12  1  0
 12 13  1  0
 12 14  2  0
  2 15  1  0
 15 16  1  0
 16 17  2  0
 17 18  1  0
 18 19  2  0
 19 20  1  0
 20 21  2  0
 21 22  1  0
 22 23  1  0
 22 24  2  0
 24 25  1  0
 25 26  2  0
 14  5  1  0
 26 16  1  0
 26 20  1  0
M  CHG  2   9   1  11  -1
M  END
>  <ref_pdb>  (204) 
x0554_0A

>  <ref_mols>  (204) 
x0554_0A,x0566_0A

>  <original SMILES>  (204) 
O=C(COc1ccc([N+](=O)[O-])c(F)c1)Nc1cccc2nc(Cl)ccc12

>  <IC50 (nM)>  (204) 
1254.786969323559

>  <CNNaffinity>  (204) 
5.90143

>  <rationale>  (204) 
-1

$$$$
PV_002424465236
     RDKit          3D

 27 30  0  0  0  0  0  0  0  0999 V2000
   11.2472   14.5947   23.5656 O   0  0  0  0  0  0  0  0  0  0  0  0
   11.5196   13.7468   22.7416 C   0  0  0  0  0  0  0  0  0  0  0  0
   12.6826   13.9386   21.7607 C   0  0  0  0  0  0  0  0  0  0  0  0
   12.2731   14.3170   20.4179 N   0  0  0  0  0  0  0  0  0  0  0  0
   11.5781   15.4824   20.1987 N   0  0  0  0  0  0  0  0  0  0  0  0
   11.3034   15.4480   18.9380 C   0  0  0  0  0  0  0  0  0  0  0  0
   10.5607   16.4434   18.1283 C   0  0  0  0  0  0  0  0  0  0  0  0
   10.1814   17.6846   18.6792 C   0  0  0  0  0  0  0  0  0  0  0  0
    9.4545   18.6003   17.9116 C   0  0  0  0  0  0  0  0  0  0  0  0
    9.0795   18.2848   16.6012 C   0  0  0  0  0  0  0  0  0  0  0  0
    9.4845   17.0698   16.0433 C   0  0  0  0  0  0  0  0  0  0  0  0
   10.2111   16.1491   16.7944 C   0  0  0  0  0  0  0  0  0  0  0  0
   11.7594   14.3306   18.3155 O   0  0  0  0  0  0  0  0  0  0  0  0
   12.4162   13.5833   19.2634 C   0  0  0  0  0  0  0  0  0  0  0  0
   12.9594   12.5304   19.0766 O   0  0  0  0  0  0  0  0  0  0  0  0
   10.8587   12.5532   22.6094 N   0  0  0  0  0  0  0  0  0  0  0  0
    9.9258   11.9877   23.4954 C   0  0  0  0  0  0  0  0  0  0  0  0
    9.1042   12.7805   24.2660 C   0  0  0  0  0  0  0  0  0  0  0  0
    8.0913   12.2043   25.0807 C   0  0  0  0  0  0  0  0  0  0  0  0
    7.9315   10.8387   25.1137 C   0  0  0  0  0  0  0  0  0  0  0  0
    8.7844    9.9986   24.3499 C   0  0  0  0  0  0  0  0  0  0  0  0
    8.5360    8.6551   24.4349 N   0  0  0  0  0  0  0  0  0  0  0  0
    9.2939    7.8617   23.7529 C   0  0  0  0  0  0  0  0  0  0  0  0
    8.8285    6.1766   23.6963 Cl  0  0  0  0  0  0  0  0  0  0  0  0
   10.4453    8.2679   23.0207 C   0  0  0  0  0  0  0  0  0  0  0  0
   10.7021    9.6138   22.9154 C   0  0  0  0  0  0  0  0  0  0  0  0
    9.8274   10.5537   23.5493 C   0  0  0  0  0  0  0  0  0  0  0  0
  1  2  2  0
  2  3  1  0
  3  4  1  0
  4  5  1  0
  5  6  2  0
  6  7  1  0
  7  8  2  0
  8  9  1  0
  9 10  2  0
 10 11  1  0
 11 12  2  0
  6 13  1  0
 13 14  1  0
 14 15  2  0
  2 16  1  0
 16 17  1  0
 17 18  2  0
 18 19  1  0
 19 20  2  0
 20 21  1  0
 21 22  2  0
 22 23  1  0
 23 24  1  0
 23 25  2  0
 25 26  1  0
 26 27  2  0
 14  4  1  0
 27 17  1  0
 12  7  1  0
 27 21  1  0
M  END
>  <ref_pdb>  (205) 
x0554_0A

>  <ref_mols>  (205) 
x0554_0A,x0566_0A

>  <original SMILES>  (205) 
O=C(Cn1nc(-c2ccccc2)oc1=O)Nc1cccc2nc(Cl)ccc12

>  <IC50 (nM)>  (205) 
1255.075927966922

>  <CNNaffinity>  (205) 
5.90133

>  <rationale>  (205) 
-1

$$$$
PV_002112523448
     RDKit          3D

 25 27  0  0  0  0  0  0  0  0999 V2000
   10.7830   18.6969   17.5227 N   0  0  0  0  0  0  0  0  0  0  0  0
    9.6350   17.5662   17.9286 S   0  0  0  0  0  6  0  0  0  0  0  0
    8.5682   18.3819   18.4662 O   0  0  0  0  0  0  0  0  0  0  0  0
    9.4943   16.5983   16.8767 O   0  0  0  0  0  0  0  0  0  0  0  0
   10.5013   16.9079   19.2930 C   0  0  0  0  0  0  0  0  0  0  0  0
   11.5041   15.9667   19.4978 C   0  0  0  0  0  0  0  0  0  0  0  0
   11.8780   16.1243   20.7915 N   0  0  0  0  0  0  0  0  0  0  0  0
   12.8463   15.3251   21.5323 C   0  0  0  0  0  0  0  0  0  0  0  0
   12.3961   13.8829   21.7642 C   0  0  0  0  0  0  0  0  0  0  0  0
   11.2822   13.7247   22.7885 C   0  0  0  0  0  0  0  0  0  0  0  0
   11.0367   14.5590   23.6357 O   0  0  0  0  0  0  0  0  0  0  0  0
   10.6335   12.5273   22.6928 N   0  0  0  0  0  0  0  0  0  0  0  0
    9.7588   11.9223   23.6034 C   0  0  0  0  0  0  0  0  0  0  0  0
    8.9183   12.6526   24.4137 C   0  0  0  0  0  0  0  0  0  0  0  0
    7.9639   11.9982   25.2420 C   0  0  0  0  0  0  0  0  0  0  0  0
    7.8676   10.6249   25.2380 C   0  0  0  0  0  0  0  0  0  0  0  0
    8.7409    9.8512   24.4258 C   0  0  0  0  0  0  0  0  0  0  0  0
    8.5553    8.4943   24.4448 N   0  0  0  0  0  0  0  0  0  0  0  0
    9.3378    7.7708   23.7135 C   0  0  0  0  0  0  0  0  0  0  0  0
    8.9449    6.0747   23.5481 Cl  0  0  0  0  0  0  0  0  0  0  0  0
   10.4708    8.2591   23.0038 C   0  0  0  0  0  0  0  0  0  0  0  0
   10.6610    9.6167   22.9600 C   0  0  0  0  0  0  0  0  0  0  0  0
    9.7406   10.4843   23.6306 C   0  0  0  0  0  0  0  0  0  0  0  0
   11.2063   17.1083   21.3976 N   0  0  0  0  0  0  0  0  0  0  0  0
   10.3696   17.5934   20.5091 C   0  0  0  0  0  0  0  0  0  0  0  0
  1  2  1  0
  2  3  2  0
  2  4  2  0
  2  5  1  0
  5  6  2  0
  6  7  1  0
  7  8  1  0
  8  9  1  0
  9 10  1  0
 10 11  2  0
 10 12  1  0
 12 13  1  0
 13 14  2  0
 14 15  1  0
 15 16  2  0
 16 17  1  0
 17 18  2  0
 18 19  1  0
 19 20  1  0
 19 21  2  0
 21 22  1  0
 22 23  2  0
  7 24  1  0
 24 25  2  0
 25  5  1  0
 23 13  1  0
 23 17  1  0
M  END
>  <ref_pdb>  (206) 
x0554_0A

>  <ref_mols>  (206) 
x0554_0A,x0566_0A

>  <original SMILES>  (206) 
NS(=O)(=O)c1cnn(CCC(=O)Nc2cccc3nc(Cl)ccc23)c1

>  <IC50 (nM)>  (206) 
1255.7407854019593

>  <CNNaffinity>  (206) 
5.9011

>  <rationale>  (206) 
-1

$$$$
Z3384354419
     RDKit          3D

 22 24  0  0  0  0  0  0  0  0999 V2000
   11.9659   13.4863   19.0817 N   0  0  0  0  0  0  0  0  0  0  0  0
   11.4583   14.7707   19.5889 C   0  0  1  0  0  0  0  0  0  0  0  0
   12.3575   15.2000   20.7568 C   0  0  0  0  0  0  0  0  0  0  0  0
   12.4732   14.1850   21.9235 C   0  0  0  0  0  0  0  0  0  0  0  0
   11.2083   13.9262   22.7418 C   0  0  0  0  0  0  0  0  0  0  0  0
   10.6227   14.8391   23.2985 O   0  0  0  0  0  0  0  0  0  0  0  0
   10.8055   12.6145   22.7919 N   0  0  0  0  0  0  0  0  0  0  0  0
    9.8514   11.9900   23.6116 C   0  0  0  0  0  0  0  0  0  0  0  0
    8.9786   12.7141   24.3959 C   0  0  0  0  0  0  0  0  0  0  0  0
    8.0040   12.0634   25.2028 C   0  0  0  0  0  0  0  0  0  0  0  0
    7.8999   10.6913   25.1923 C   0  0  0  0  0  0  0  0  0  0  0  0
    8.7803    9.9189   24.3898 C   0  0  0  0  0  0  0  0  0  0  0  0
    8.5724    8.5653   24.4100 N   0  0  0  0  0  0  0  0  0  0  0  0
    9.3529    7.8308   23.6877 C   0  0  0  0  0  0  0  0  0  0  0  0
    8.9527    6.1338   23.5543 Cl  0  0  0  0  0  0  0  0  0  0  0  0
   10.4852    8.3102   22.9735 C   0  0  0  0  0  0  0  0  0  0  0  0
   10.6952    9.6654   22.9245 C   0  0  0  0  0  0  0  0  0  0  0  0
    9.8012   10.5478   23.6114 C   0  0  0  0  0  0  0  0  0  0  0  0
   11.3620   15.7924   18.4395 C   0  0  0  0  0  0  0  0  0  0  0  0
    9.9784   15.4911   17.8679 C   0  0  0  0  0  0  0  0  0  0  0  0
    9.1650   15.2842   19.0104 O   0  0  0  0  0  0  0  0  0  0  0  0
    9.9612   14.6604   20.0119 C   0  0  0  0  0  0  0  0  0  0  0  0
  2  1  1  6
  2  3  1  0
  3  4  1  0
  4  5  1  0
  5  6  2  0
  5  7  1  0
  7  8  1  0
  8  9  2  0
  9 10  1  0
 10 11  2  0
 11 12  1  0
 12 13  2  0
 13 14  1  0
 14 15  1  0
 14 16  2  0
 16 17  1  0
 17 18  2  0
  2 19  1  0
 19 20  1  0
 20 21  1  0
 21 22  1  0
 22  2  1  0
 18  8  1  0
 18 12  1  0
M  END
>  <ref_pdb>  (207) 
x0554_0A

>  <ref_mols>  (207) 
x0554_0A,x0566_0A

>  <original SMILES>  (207) 
N[C@@]1(CCC(=O)Nc2cccc3nc(Cl)ccc23)CCOC1

>  <IC50 (nM)>  (207) 
1258.809465818304

>  <CNNaffinity>  (207) 
5.90004

>  <rationale>  (207) 
-1

$$$$
Z3518826461
     RDKit          3D

 25 28  0  0  0  0  0  0  0  0999 V2000
   10.8463   14.7001   23.5818 O   0  0  0  0  0  0  0  0  0  0  0  0
   11.2795   13.8007   22.8861 C   0  0  0  0  0  0  0  0  0  0  0  0
   12.5079   13.9699   22.0047 C   0  0  0  0  0  0  0  0  0  0  0  0
   12.2481   14.6794   20.6641 C   0  0  2  0  0  0  0  0  0  0  0  0
   11.6875   16.0946   20.7702 C   0  0  0  0  0  0  0  0  0  0  0  0
   11.2814   16.4172   19.4479 O   0  0  0  0  0  0  0  0  0  0  0  0
   10.9148   15.2177   18.7239 C   0  0  0  0  0  0  0  0  0  0  0  0
   11.7941   15.1499   17.4626 C   0  0  0  0  0  0  0  0  0  0  0  0
   11.4727   16.2899   16.4991 C   0  0  0  0  0  0  0  0  0  0  0  0
   10.0551   16.3438   16.1418 N   0  0  0  0  0  0  0  0  0  0  0  0
    9.2120   16.4666   17.3308 C   0  0  0  0  0  0  0  0  0  0  0  0
    9.4319   15.3234   18.3283 C   0  0  0  0  0  0  0  0  0  0  0  0
   11.2207   14.0602   19.7044 C   0  0  0  0  0  0  0  0  0  0  0  0
   10.7103   12.5604   22.7949 N   0  0  0  0  0  0  0  0  0  0  0  0
    9.7829   11.9498   23.6414 C   0  0  0  0  0  0  0  0  0  0  0  0
    8.9194   12.6834   24.4260 C   0  0  0  0  0  0  0  0  0  0  0  0
    7.9561   12.0268   25.2413 C   0  0  0  0  0  0  0  0  0  0  0  0
    7.8599   10.6522   25.2316 C   0  0  0  0  0  0  0  0  0  0  0  0
    8.7384    9.8781   24.4216 C   0  0  0  0  0  0  0  0  0  0  0  0
    8.5524    8.5200   24.4363 N   0  0  0  0  0  0  0  0  0  0  0  0
    9.3347    7.7985   23.7048 C   0  0  0  0  0  0  0  0  0  0  0  0
    8.9479    6.0980   23.5504 Cl  0  0  0  0  0  0  0  0  0  0  0  0
   10.4649    8.2903   22.9907 C   0  0  0  0  0  0  0  0  0  0  0  0
   10.6591    9.6457   22.9478 C   0  0  0  0  0  0  0  0  0  0  0  0
    9.7502   10.5120   23.6401 C   0  0  0  0  0  0  0  0  0  0  0  0
  1  2  2  0
  2  3  1  0
  4  3  1  1
  4  5  1  0
  5  6  1  0
  6  7  1  0
  7  8  1  0
  8  9  1  0
  9 10  1  0
 10 11  1  0
 11 12  1  0
  7 13  1  0
  2 14  1  0
 14 15  1  0
 15 16  2  0
 16 17  1  0
 17 18  2  0
 18 19  1  0
 19 20  2  0
 20 21  1  0
 21 22  1  0
 21 23  2  0
 23 24  1  0
 24 25  2  0
 13  4  1  0
 25 15  1  0
 12  7  1  0
 25 19  1  0
M  END
>  <ref_pdb>  (208) 
x0554_0A

>  <ref_mols>  (208) 
x0554_0A,x0566_0A

>  <original SMILES>  (208) 
O=C(C[C@@H]1COC2(CCNCC2)C1)Nc1cccc2nc(Cl)ccc12

>  <IC50 (nM)>  (208) 
1260.4627045662285

>  <CNNaffinity>  (208) 
5.89947

>  <rationale>  (208) 
-1

$$$$
PV_002561063379
     RDKit          3D

 22 24  0  0  0  0  0  0  0  0999 V2000
   13.3617   15.0814   22.2811 C   0  0  0  0  0  0  0  0  0  0  0  0
   12.3573   14.0412   21.7418 C   0  0  1  0  0  0  0  0  0  0  0  0
   11.1768   13.8564   22.7088 C   0  0  0  0  0  0  0  0  0  0  0  0
   10.7647   14.7464   23.4231 O   0  0  0  0  0  0  0  0  0  0  0  0
   10.6261   12.6011   22.6742 N   0  0  0  0  0  0  0  0  0  0  0  0
    9.7370   11.9946   23.5800 C   0  0  0  0  0  0  0  0  0  0  0  0
    8.8745   12.7240   24.3718 C   0  0  0  0  0  0  0  0  0  0  0  0
    7.9048   12.0736   25.1858 C   0  0  0  0  0  0  0  0  0  0  0  0
    7.8302   10.7014   25.2144 C   0  0  0  0  0  0  0  0  0  0  0  0
    8.7264    9.9259   24.4334 C   0  0  0  0  0  0  0  0  0  0  0  0
    8.5365    8.5704   24.4807 N   0  0  0  0  0  0  0  0  0  0  0  0
    9.2956    7.8338   23.7407 C   0  0  0  0  0  0  0  0  0  0  0  0
    8.8798    6.1402   23.5933 Cl  0  0  0  0  0  0  0  0  0  0  0  0
   10.4134    8.3097   22.9986 C   0  0  0  0  0  0  0  0  0  0  0  0
   10.6276    9.6658   22.9498 C   0  0  0  0  0  0  0  0  0  0  0  0
    9.7285   10.5516   23.6285 C   0  0  0  0  0  0  0  0  0  0  0  0
   11.8257   14.4982   20.4014 C   0  0  0  0  0  0  0  0  0  0  0  0
   12.4198   14.1076   19.1714 C   0  0  0  0  0  0  0  0  0  0  0  0
   12.1276   14.7034   18.0000 N   0  0  0  0  0  0  0  0  0  0  0  0
   11.2091   15.6849   18.0608 C   0  0  0  0  0  0  0  0  0  0  0  0
   10.5811   16.0453   19.2653 C   0  0  0  0  0  0  0  0  0  0  0  0
   10.8695   15.4454   20.4345 N   0  0  0  0  0  0  0  0  0  0  0  0
  2  1  1  1
  2  3  1  0
  3  4  2  0
  3  5  1  0
  5  6  1  0
  6  7  2  0
  7  8  1  0
  8  9  2  0
  9 10  1  0
 10 11  2  0
 11 12  1  0
 12 13  1  0
 12 14  2  0
 14 15  1  0
 15 16  2  0
  2 17  1  0
 17 18  2  0
 18 19  1  0
 19 20  2  0
 20 21  1  0
 21 22  2  0
 16  6  1  0
 22 17  1  0
 16 10  1  0
M  END
>  <ref_pdb>  (209) 
x0554_0A

>  <ref_mols>  (209) 
x0554_0A,x0566_0A

>  <original SMILES>  (209) 
C[C@@H](C(=O)Nc1cccc2nc(Cl)ccc12)c1cnccn1

>  <IC50 (nM)>  (209) 
1260.8110314032

>  <CNNaffinity>  (209) 
5.89935

>  <rationale>  (209) 
-1

$$$$
PV_002186829409
     RDKit          3D

 28 31  0  0  0  0  0  0  0  0999 V2000
    8.9236   17.8697   16.6324 C   0  0  0  0  0  0  0  0  0  0  0  0
    9.1758   18.2252   18.0785 C   0  0  0  0  0  0  0  0  0  0  0  0
    8.6071   19.3726   18.6146 C   0  0  0  0  0  0  0  0  0  0  0  0
    8.6724   19.6538   19.9946 C   0  0  0  0  0  0  0  0  0  0  0  0
    9.2675   18.7556   20.8606 C   0  0  0  0  0  0  0  0  0  0  0  0
    9.9466   17.6383   20.3339 C   0  0  0  0  0  0  0  0  0  0  0  0
    9.9734   17.4086   18.9433 C   0  0  0  0  0  0  0  0  0  0  0  0
   10.7854   16.4096   18.4101 N   0  0  0  0  0  0  0  0  0  0  0  0
   11.5875   15.7725   19.1855 C   0  0  0  0  0  0  0  0  0  0  0  0
   11.6651   15.9151   20.5517 N   0  0  0  0  0  0  0  0  0  0  0  0
   12.7305   15.2506   21.3230 C   0  0  0  0  0  0  0  0  0  0  0  0
   12.4139   13.7796   21.5536 C   0  0  0  0  0  0  0  0  0  0  0  0
   11.4809   13.5068   22.7172 C   0  0  0  0  0  0  0  0  0  0  0  0
   11.5492   14.1048   23.7711 O   0  0  0  0  0  0  0  0  0  0  0  0
   10.6390   12.4504   22.5134 N   0  0  0  0  0  0  0  0  0  0  0  0
    9.8180   11.8718   23.4885 C   0  0  0  0  0  0  0  0  0  0  0  0
    9.0461   12.6635   24.3109 C   0  0  0  0  0  0  0  0  0  0  0  0
    8.0738   12.0766   25.1633 C   0  0  0  0  0  0  0  0  0  0  0  0
    7.9232   10.7093   25.1942 C   0  0  0  0  0  0  0  0  0  0  0  0
    8.7614    9.8761   24.4020 C   0  0  0  0  0  0  0  0  0  0  0  0
    8.5443    8.5285   24.4866 N   0  0  0  0  0  0  0  0  0  0  0  0
    9.2973    7.7496   23.7808 C   0  0  0  0  0  0  0  0  0  0  0  0
    8.8498    6.0572   23.7228 Cl  0  0  0  0  0  0  0  0  0  0  0  0
   10.4314    8.1741   23.0286 C   0  0  0  0  0  0  0  0  0  0  0  0
   10.6523    9.5243   22.9132 C   0  0  0  0  0  0  0  0  0  0  0  0
    9.7653   10.4416   23.5650 C   0  0  0  0  0  0  0  0  0  0  0  0
   10.6978   16.7058   21.1950 C   0  0  0  0  0  0  0  0  0  0  0  0
   10.5619   16.6440   22.3976 O   0  0  0  0  0  0  0  0  0  0  0  0
  1  2  1  0
  2  3  2  0
  3  4  1  0
  4  5  2  0
  5  6  1  0
  6  7  2  0
  7  8  1  0
  8  9  2  0
  9 10  1  0
 10 11  1  0
 11 12  1  0
 12 13  1  0
 13 14  2  0
 13 15  1  0
 15 16  1  0
 16 17  2  0
 17 18  1  0
 18 19  2  0
 19 20  1  0
 20 21  2  0
 21 22  1  0
 22 23  1  0
 22 24  2  0
 24 25  1  0
 25 26  2  0
 10 27  1  0
 27 28  2  0
  7  2  1  0
 26 16  1  0
 27  6  1  0
 26 20  1  0
M  END
>  <ref_pdb>  (210) 
x0554_0A

>  <ref_mols>  (210) 
x0554_0A,x0566_0A

>  <original SMILES>  (210) 
Cc1cccc2c(=O)n(CCC(=O)Nc3cccc4nc(Cl)ccc34)cnc12

>  <IC50 (nM)>  (210) 
1263.4847370744692

>  <CNNaffinity>  (210) 
5.89843

>  <rationale>  (210) 
-1

$$$$
Z4654608713
     RDKit          3D

 24 26  0  0  0  0  0  0  0  0999 V2000
   13.7418   13.3844   23.7569 C   0  0  0  0  0  0  0  0  0  0  0  0
   13.0593   13.5223   22.4491 C   0  0  0  0  0  0  0  0  0  0  0  0
   12.0307   14.4962   22.3713 C   0  0  2  0  0  0  0  0  0  0  0  0
   10.7758   14.0081   23.3137 C   0  0  0  0  0  0  0  0  0  0  0  0
   10.4747   14.6506   24.2951 O   0  0  0  0  0  0  0  0  0  0  0  0
   10.1711   12.8233   22.9607 N   0  0  0  0  0  0  0  0  0  0  0  0
    9.3505   12.0470   23.8047 C   0  0  0  0  0  0  0  0  0  0  0  0
    8.4291   12.6460   24.6332 C   0  0  0  0  0  0  0  0  0  0  0  0
    7.5460   11.8602   25.4237 C   0  0  0  0  0  0  0  0  0  0  0  0
    7.6125   10.4874   25.3760 C   0  0  0  0  0  0  0  0  0  0  0  0
    8.5584    9.8464   24.5310 C   0  0  0  0  0  0  0  0  0  0  0  0
    8.5209    8.4788   24.5037 N   0  0  0  0  0  0  0  0  0  0  0  0
    9.3294    7.8698   23.7002 C   0  0  0  0  0  0  0  0  0  0  0  0
    9.0661    6.1590   23.4545 Cl  0  0  0  0  0  0  0  0  0  0  0  0
   10.3715    8.5028   22.9683 C   0  0  0  0  0  0  0  0  0  0  0  0
   10.4344    9.8731   22.9949 C   0  0  0  0  0  0  0  0  0  0  0  0
    9.4698   10.6159   23.7465 C   0  0  0  0  0  0  0  0  0  0  0  0
   11.6755   14.9717   20.9491 N   0  0  0  0  0  0  0  0  0  0  0  0
   12.0076   14.3469   19.7569 C   0  0  0  0  0  0  0  0  0  0  0  0
   12.6782   13.3542   19.6282 O   0  0  0  0  0  0  0  0  0  0  0  0
   11.3823   15.1241   18.6079 C   0  0  0  0  0  0  0  0  0  0  0  0
   10.7846   16.3667   19.2593 C   0  0  0  0  0  0  0  0  0  0  0  0
   11.1605   16.2399   20.7240 C   0  0  0  0  0  0  0  0  0  0  0  0
   11.0125   17.0799   21.5777 O   0  0  0  0  0  0  0  0  0  0  0  0
  1  2  1  0
  3  2  1  6
  3  4  1  0
  4  5  2  0
  4  6  1  0
  6  7  1  0
  7  8  2  0
  8  9  1  0
  9 10  2  0
 10 11  1  0
 11 12  2  0
 12 13  1  0
 13 14  1  0
 13 15  2  0
 15 16  1  0
 16 17  2  0
  3 18  1  0
 18 19  1  0
 19 20  2  0
 19 21  1  0
 21 22  1  0
 22 23  1  0
 23 24  2  0
 17  7  1  0
 23 18  1  0
 17 11  1  0
M  END
>  <ref_pdb>  (211) 
x0554_0A

>  <ref_mols>  (211) 
x0554_0A,x0566_0A

>  <original SMILES>  (211) 
CC[C@H](C(=O)Nc1cccc2nc(Cl)ccc12)N1C(=O)CCC1=O

>  <IC50 (nM)>  (211) 
1263.7175010018275

>  <CNNaffinity>  (211) 
5.89835

>  <rationale>  (211) 
-1

$$$$
PV_006725449880
     RDKit          3D

 27 30  0  0  0  0  0  0  0  0999 V2000
    9.7529   14.5846   17.1620 C   0  0  0  0  0  0  0  0  0  0  0  0
   10.5288   14.7939   18.3659 N   0  0  0  0  0  0  0  0  0  0  0  0
   10.8805   13.6464   19.2097 C   0  0  0  0  0  0  0  0  0  0  0  0
   12.1899   13.9703   19.9466 C   0  0  0  0  0  0  0  0  0  0  0  0
   11.9713   15.0975   20.8622 N   0  0  0  0  0  0  0  0  0  0  0  0
   12.2015   14.8903   22.2945 C   0  0  0  0  0  0  0  0  0  0  0  0
   10.9973   14.4129   23.1721 C   0  0  0  0  0  0  0  0  0  0  0  0
   10.3436   15.2116   23.8210 O   0  0  0  0  0  0  0  0  0  0  0  0
   10.7509   13.0655   23.1618 N   0  0  0  0  0  0  0  0  0  0  0  0
    9.7455   12.3394   23.8146 C   0  0  0  0  0  0  0  0  0  0  0  0
    8.7713   12.9540   24.5710 C   0  0  0  0  0  0  0  0  0  0  0  0
    7.7805   12.1851   25.2385 C   0  0  0  0  0  0  0  0  0  0  0  0
    7.7665   10.8145   25.1129 C   0  0  0  0  0  0  0  0  0  0  0  0
    8.7396   10.1599   24.3109 C   0  0  0  0  0  0  0  0  0  0  0  0
    8.6167    8.7986   24.2028 N   0  0  0  0  0  0  0  0  0  0  0  0
    9.4885    8.1738   23.4783 C   0  0  0  0  0  0  0  0  0  0  0  0
    9.2305    6.4661   23.2097 Cl  0  0  0  0  0  0  0  0  0  0  0  0
   10.6123    8.7799   22.8489 C   0  0  0  0  0  0  0  0  0  0  0  0
   10.7383   10.1419   22.9300 C   0  0  0  0  0  0  0  0  0  0  0  0
    9.7705   10.9065   23.6617 C   0  0  0  0  0  0  0  0  0  0  0  0
   11.0535   16.0783   20.4092 C   0  0  0  0  0  0  0  0  0  0  0  0
   10.7065   17.1613   21.2278 C   0  0  0  0  0  0  0  0  0  0  0  0
    9.9500   18.2362   20.7447 C   0  0  0  0  0  0  0  0  0  0  0  0
    9.4934   18.1835   19.4307 C   0  0  0  0  0  0  0  0  0  0  0  0
    8.8100   19.2245   18.9298 F   0  0  0  0  0  0  0  0  0  0  0  0
    9.6954   17.0773   18.6149 C   0  0  0  0  0  0  0  0  0  0  0  0
   10.4242   15.9816   19.1023 C   0  0  0  0  0  0  0  0  0  0  0  0
  1  2  1  0
  2  3  1  0
  3  4  1  0
  4  5  1  0
  5  6  1  0
  6  7  1  0
  7  8  2  0
  7  9  1  0
  9 10  1  0
 10 11  2  0
 11 12  1  0
 12 13  2  0
 13 14  1  0
 14 15  2  0
 15 16  1  0
 16 17  1  0
 16 18  2  0
 18 19  1  0
 19 20  2  0
  5 21  1  0
 21 22  2  0
 22 23  1  0
 23 24  2  0
 24 25  1  0
 24 26  1  0
 26 27  2  0
 27  2  1  0
 20 10  1  0
 27 21  1  0
 20 14  1  0
M  END
>  <ref_pdb>  (212) 
x0554_0A

>  <ref_mols>  (212) 
x0554_0A,x0566_0A

>  <original SMILES>  (212) 
CN1CCN(CC(=O)Nc2cccc3nc(Cl)ccc23)c2ccc(F)cc21

>  <IC50 (nM)>  (212) 
1269.5797887759913

>  <CNNaffinity>  (212) 
5.89634

>  <rationale>  (212) 
-1

$$$$
PV_002225175427
     RDKit          3D

 27 30  0  0  0  0  0  0  0  0999 V2000
   11.1366   14.4130   23.7294 O   0  0  0  0  0  0  0  0  0  0  0  0
   11.3637   13.5925   22.8647 C   0  0  0  0  0  0  0  0  0  0  0  0
   12.5042   13.7182   21.8528 C   0  0  0  0  0  0  0  0  0  0  0  0
   13.0391   15.1474   21.5840 C   0  0  0  0  0  0  0  0  0  0  0  0
   12.0169   16.0824   21.0272 C   0  0  0  0  0  0  0  0  0  0  0  0
   11.6365   16.1784   19.7923 N   0  0  0  0  0  0  0  0  0  0  0  0
   10.6167   17.1225   19.8715 C   0  0  0  0  0  0  0  0  0  0  0  0
    9.8713   17.5899   18.6466 C   0  0  0  0  0  0  0  0  0  0  0  0
   10.0947   16.9041   17.4329 C   0  0  0  0  0  0  0  0  0  0  0  0
    9.4823   17.3743   16.2737 C   0  0  0  0  0  0  0  0  0  0  0  0
    8.6667   18.5041   16.3588 C   0  0  0  0  0  0  0  0  0  0  0  0
    8.4592   19.0890   17.6121 C   0  0  0  0  0  0  0  0  0  0  0  0
    9.0428   18.6548   18.7318 N   0  0  0  0  0  0  0  0  0  0  0  0
   10.4140   17.5660   21.0898 N   0  0  0  0  0  0  0  0  0  0  0  0
   11.3301   16.8763   21.8446 O   0  0  0  0  0  0  0  0  0  0  0  0
   10.6479   12.4373   22.7038 N   0  0  0  0  0  0  0  0  0  0  0  0
    9.7572   11.8432   23.6048 C   0  0  0  0  0  0  0  0  0  0  0  0
    8.9149   12.5978   24.3932 C   0  0  0  0  0  0  0  0  0  0  0  0
    7.9537   11.9665   25.2300 C   0  0  0  0  0  0  0  0  0  0  0  0
    7.8546   10.5941   25.2539 C   0  0  0  0  0  0  0  0  0  0  0  0
    8.7237    9.7988   24.4579 C   0  0  0  0  0  0  0  0  0  0  0  0
    8.5323    8.4444   24.5072 N   0  0  0  0  0  0  0  0  0  0  0  0
    9.2936    7.7017   23.7753 C   0  0  0  0  0  0  0  0  0  0  0  0
    8.8741    6.0078   23.6472 Cl  0  0  0  0  0  0  0  0  0  0  0  0
   10.4260    8.1657   23.0463 C   0  0  0  0  0  0  0  0  0  0  0  0
   10.6342    9.5203   22.9839 C   0  0  0  0  0  0  0  0  0  0  0  0
    9.7274   10.4073   23.6502 C   0  0  0  0  0  0  0  0  0  0  0  0
  1  2  2  0
  2  3  1  0
  3  4  1  0
  4  5  1  0
  5  6  2  0
  6  7  1  0
  7  8  1  0
  8  9  2  0
  9 10  1  0
 10 11  2  0
 11 12  1  0
 12 13  2  0
  7 14  2  0
 14 15  1  0
  2 16  1  0
 16 17  1  0
 17 18  2  0
 18 19  1  0
 19 20  2  0
 20 21  1  0
 21 22  2  0
 22 23  1  0
 23 24  1  0
 23 25  2  0
 25 26  1  0
 26 27  2  0
 15  5  1  0
 27 17  1  0
 13  8  1  0
 27 21  1  0
M  END
>  <ref_pdb>  (213) 
x0554_0A

>  <ref_mols>  (213) 
x0554_0A,x0566_0A

>  <original SMILES>  (213) 
O=C(CCc1nc(-c2ccccn2)no1)Nc1cccc2nc(Cl)ccc12

>  <IC50 (nM)>  (213) 
1274.5298169103544

>  <CNNaffinity>  (213) 
5.89465

>  <rationale>  (213) 
-1

$$$$
PV_002318940164
     RDKit          3D

 26 28  0  0  0  0  0  0  0  0999 V2000
    9.9369   19.1343   17.7325 C   0  0  0  0  0  0  0  0  0  0  0  0
   10.4119   17.9319   18.5443 C   0  0  0  0  0  0  0  0  0  0  0  0
    9.2889   17.0091   19.0050 C   0  0  0  0  0  0  0  0  0  0  0  0
    9.6710   16.1276   20.2120 C   0  0  0  0  0  0  0  0  0  0  0  0
   11.1017   15.1074   19.9185 S   0  0  0  0  0  6  0  0  0  0  0  0
   10.7579   14.1687   18.8709 O   0  0  0  0  0  0  0  0  0  0  0  0
   12.2672   15.9759   19.8201 O   0  0  0  0  0  0  0  0  0  0  0  0
   11.2642   14.2027   21.3590 N   0  0  0  0  0  0  0  0  0  0  0  0
   12.6136   13.5657   21.3729 C   0  0  0  0  0  0  0  0  0  0  0  0
   12.7735   13.1294   22.8212 C   0  0  0  0  0  0  0  0  0  0  0  0
   12.2848   14.4007   23.5130 C   0  0  0  0  0  0  0  0  0  0  0  0
   10.9787   14.7394   22.7448 C   0  0  2  0  0  0  0  0  0  0  0  0
    9.7749   14.1729   23.5865 C   0  0  0  0  0  0  0  0  0  0  0  0
    9.3147   14.8857   24.4594 O   0  0  0  0  0  0  0  0  0  0  0  0
    9.3780   12.8812   23.3428 N   0  0  0  0  0  0  0  0  0  0  0  0
    8.7008   12.0242   24.2313 C   0  0  0  0  0  0  0  0  0  0  0  0
    7.9332   12.5462   25.2525 C   0  0  0  0  0  0  0  0  0  0  0  0
    7.3526   11.7047   26.2375 C   0  0  0  0  0  0  0  0  0  0  0  0
    7.5564   10.3478   26.1870 C   0  0  0  0  0  0  0  0  0  0  0  0
    8.2879    9.7801   25.1099 C   0  0  0  0  0  0  0  0  0  0  0  0
    8.3778    8.4135   25.1173 N   0  0  0  0  0  0  0  0  0  0  0  0
    8.8415    7.8405   24.0527 C   0  0  0  0  0  0  0  0  0  0  0  0
    8.7039    6.0981   23.9736 Cl  0  0  0  0  0  0  0  0  0  0  0  0
    9.3667    8.5255   22.9186 C   0  0  0  0  0  0  0  0  0  0  0  0
    9.3717    9.9001   22.9402 C   0  0  0  0  0  0  0  0  0  0  0  0
    8.8231   10.5995   24.0644 C   0  0  0  0  0  0  0  0  0  0  0  0
  1  2  1  0
  2  3  1  0
  3  4  1  0
  4  5  1  0
  5  6  2  0
  5  7  2  0
  5  8  1  0
  8  9  1  0
  9 10  1  0
 10 11  1  0
 11 12  1  0
 12 13  1  1
 13 14  2  0
 13 15  1  0
 15 16  1  0
 16 17  2  0
 17 18  1  0
 18 19  2  0
 19 20  1  0
 20 21  2  0
 21 22  1  0
 22 23  1  0
 22 24  2  0
 24 25  1  0
 25 26  2  0
 12  8  1  0
 26 16  1  0
 26 20  1  0
M  END
>  <ref_pdb>  (214) 
x0554_0A

>  <ref_mols>  (214) 
x0554_0A,x0566_0A

>  <original SMILES>  (214) 
CCCCS(=O)(=O)N1CCC[C@@H]1C(=O)Nc1cccc2nc(Cl)ccc12

>  <IC50 (nM)>  (214) 
1277.409083358896

>  <CNNaffinity>  (214) 
5.89367

>  <rationale>  (214) 
-1

$$$$
PV_002334739605
     RDKit          3D

 27 30  0  0  0  0  0  0  0  0999 V2000
   11.1188   14.4298   23.7139 O   0  0  0  0  0  0  0  0  0  0  0  0
   11.3426   13.6093   22.8466 C   0  0  0  0  0  0  0  0  0  0  0  0
   12.4662   13.7443   21.8180 C   0  0  0  0  0  0  0  0  0  0  0  0
   12.9868   15.1762   21.5469 C   0  0  0  0  0  0  0  0  0  0  0  0
   11.9408   16.0907   20.9945 C   0  0  0  0  0  0  0  0  0  0  0  0
   11.5501   16.1732   19.7626 N   0  0  0  0  0  0  0  0  0  0  0  0
   10.5455   17.1103   19.8418 C   0  0  0  0  0  0  0  0  0  0  0  0
    9.8439   17.5337   18.6408 C   0  0  0  0  0  0  0  0  0  0  0  0
   10.0975   16.8819   17.3815 C   0  0  0  0  0  0  0  0  0  0  0  0
    9.4196   17.4187   16.3611 C   0  0  0  0  0  0  0  0  0  0  0  0
    8.5649   18.4834   16.4012 C   0  0  0  0  0  0  0  0  0  0  0  0
    8.3437   19.0973   17.5958 N   0  0  0  0  0  0  0  0  0  0  0  0
    8.9626   18.6271   18.6849 C   0  0  0  0  0  0  0  0  0  0  0  0
   10.3421   17.5799   21.0490 N   0  0  0  0  0  0  0  0  0  0  0  0
   11.2551   16.8814   21.8145 O   0  0  0  0  0  0  0  0  0  0  0  0
   10.6421   12.4433   22.7029 N   0  0  0  0  0  0  0  0  0  0  0  0
    9.7569   11.8510   23.6091 C   0  0  0  0  0  0  0  0  0  0  0  0
    8.9160   12.6036   24.3984 C   0  0  0  0  0  0  0  0  0  0  0  0
    7.9560   11.9690   25.2332 C   0  0  0  0  0  0  0  0  0  0  0  0
    7.8570   10.5958   25.2526 C   0  0  0  0  0  0  0  0  0  0  0  0
    8.7256    9.8031   24.4542 C   0  0  0  0  0  0  0  0  0  0  0  0
    8.5350    8.4485   24.4977 N   0  0  0  0  0  0  0  0  0  0  0  0
    9.3018    7.7096   23.7650 C   0  0  0  0  0  0  0  0  0  0  0  0
    8.8867    6.0157   23.6286 Cl  0  0  0  0  0  0  0  0  0  0  0  0
   10.4342    8.1795   23.0410 C   0  0  0  0  0  0  0  0  0  0  0  0
   10.6389    9.5338   22.9820 C   0  0  0  0  0  0  0  0  0  0  0  0
    9.7290   10.4157   23.6497 C   0  0  0  0  0  0  0  0  0  0  0  0
  1  2  2  0
  2  3  1  0
  3  4  1  0
  4  5  1  0
  5  6  2  0
  6  7  1  0
  7  8  1  0
  8  9  2  0
  9 10  1  0
 10 11  2  0
 11 12  1  0
 12 13  2  0
  7 14  2  0
 14 15  1  0
  2 16  1  0
 16 17  1  0
 17 18  2  0
 18 19  1  0
 19 20  2  0
 20 21  1  0
 21 22  2  0
 22 23  1  0
 23 24  1  0
 23 25  2  0
 25 26  1  0
 26 27  2  0
 15  5  1  0
 27 17  1  0
 13  8  1  0
 27 21  1  0
M  END
>  <ref_pdb>  (215) 
x0554_0A

>  <ref_mols>  (215) 
x0554_0A,x0566_0A

>  <original SMILES>  (215) 
O=C(CCc1nc(-c2cccnc2)no1)Nc1cccc2nc(Cl)ccc12

>  <IC50 (nM)>  (215) 
1278.2034929152255

>  <CNNaffinity>  (215) 
5.8934

>  <rationale>  (215) 
-1

$$$$
Z3584328904
     RDKit          3D

 24 27  0  0  0  0  0  0  0  0999 V2000
    9.4556   15.4275   17.4629 C   0  0  0  0  0  0  0  0  0  0  0  0
    9.9225   16.0448   18.7461 C   0  0  0  0  0  0  0  0  0  0  0  0
    9.5974   17.2910   19.0698 N   0  0  0  0  0  0  0  0  0  0  0  0
   10.1112   17.4743   20.3032 N   0  0  0  0  0  0  0  0  0  0  0  0
   10.7711   16.3889   20.7674 C   0  0  0  0  0  0  0  0  0  0  0  0
   10.6867   15.4417   19.7688 C   0  0  0  0  0  0  0  0  0  0  0  0
   11.3594   14.0954   19.8491 C   0  0  0  0  0  0  0  0  0  0  0  0
   11.6776   13.7408   21.3227 C   0  0  2  0  0  0  0  0  0  0  0  0
   10.4139   13.3048   22.0804 C   0  0  0  0  0  0  0  0  0  0  0  0
    9.3300   13.8354   21.9361 O   0  0  0  0  0  0  0  0  0  0  0  0
   10.6209   12.2955   22.9928 N   0  0  0  0  0  0  0  0  0  0  0  0
    9.6370   11.7430   23.8291 C   0  0  0  0  0  0  0  0  0  0  0  0
    8.7873   12.5526   24.5508 C   0  0  0  0  0  0  0  0  0  0  0  0
    7.8613   11.9989   25.4759 C   0  0  0  0  0  0  0  0  0  0  0  0
    7.7873   10.6323   25.6275 C   0  0  0  0  0  0  0  0  0  0  0  0
    8.6176    9.7744   24.8552 C   0  0  0  0  0  0  0  0  0  0  0  0
    8.4166    8.4275   25.0164 N   0  0  0  0  0  0  0  0  0  0  0  0
    9.0504    7.6399   24.2098 C   0  0  0  0  0  0  0  0  0  0  0  0
    8.6113    5.9503   24.1999 Cl  0  0  0  0  0  0  0  0  0  0  0  0
   10.0464    8.0402   23.2758 C   0  0  0  0  0  0  0  0  0  0  0  0
   10.2986    9.3789   23.1373 C   0  0  0  0  0  0  0  0  0  0  0  0
    9.5628   10.3152   23.9311 C   0  0  0  0  0  0  0  0  0  0  0  0
   12.3221   14.9468   22.0683 C   0  0  0  0  0  0  0  0  0  0  0  0
   11.3795   16.1688   22.1211 C   0  0  0  0  0  0  0  0  0  0  0  0
  1  2  1  0
  2  3  2  0
  3  4  1  0
  4  5  1  0
  5  6  2  0
  6  7  1  0
  7  8  1  0
  8  9  1  1
  9 10  2  0
  9 11  1  0
 11 12  1  0
 12 13  2  0
 13 14  1  0
 14 15  2  0
 15 16  1  0
 16 17  2  0
 17 18  1  0
 18 19  1  0
 18 20  2  0
 20 21  1  0
 21 22  2  0
  8 23  1  0
 23 24  1  0
  6  2  1  0
 22 12  1  0
 24  5  1  0
 22 16  1  0
M  END
>  <ref_pdb>  (216) 
x0554_0A

>  <ref_mols>  (216) 
x0554_0A,x0566_0A

>  <original SMILES>  (216) 
Cc1n[nH]c2c1C[C@H](C(=O)Nc1cccc3nc(Cl)ccc13)CC2

>  <IC50 (nM)>  (216) 
1278.9100494801012

>  <CNNaffinity>  (216) 
5.89316

>  <rationale>  (216) 
-1

$$$$
PV_002475444912
     RDKit          3D

 25 27  0  0  0  0  0  0  0  0999 V2000
    8.6985   18.7762   19.6841 C   0  0  0  0  0  0  0  0  0  0  0  0
    9.1081   17.8487   20.8383 C   0  0  0  0  0  0  0  0  0  0  0  0
   10.6422   17.7455   20.8943 C   0  0  0  0  0  0  0  0  0  0  0  0
   11.1893   16.6701   21.8435 C   0  0  0  0  0  0  0  0  0  0  0  0
   10.5382   15.3842   21.6166 N   0  0  0  0  0  0  0  0  0  0  0  0
   11.2061   14.4425   20.4191 S   0  0  0  0  0  6  0  0  0  0  0  0
   11.7735   15.2676   19.3694 O   0  0  0  0  0  0  0  0  0  0  0  0
   10.2331   13.4143   20.1050 O   0  0  0  0  0  0  0  0  0  0  0  0
   12.5379   13.7196   21.2914 C   0  0  0  0  0  0  0  0  0  0  0  0
   11.8747   13.3463   22.5652 C   0  0  0  0  0  0  0  0  0  0  0  0
   12.0202   13.9972   23.5706 O   0  0  0  0  0  0  0  0  0  0  0  0
   11.0503   12.2782   22.4211 N   0  0  0  0  0  0  0  0  0  0  0  0
   10.0492   11.9083   23.3221 C   0  0  0  0  0  0  0  0  0  0  0  0
    9.2706   12.8453   23.9606 C   0  0  0  0  0  0  0  0  0  0  0  0
    8.1278   12.4403   24.7047 C   0  0  0  0  0  0  0  0  0  0  0  0
    7.8462   11.0982   24.8532 C   0  0  0  0  0  0  0  0  0  0  0  0
    8.7041   10.1159   24.2798 C   0  0  0  0  0  0  0  0  0  0  0  0
    8.4035    8.8013   24.5094 N   0  0  0  0  0  0  0  0  0  0  0  0
    9.1236    7.9042   23.9133 C   0  0  0  0  0  0  0  0  0  0  0  0
    8.6083    6.2372   24.0320 Cl  0  0  0  0  0  0  0  0  0  0  0  0
   10.2767    8.1703   23.1215 C   0  0  0  0  0  0  0  0  0  0  0  0
   10.6221    9.4790   22.9159 C   0  0  0  0  0  0  0  0  0  0  0  0
    9.8168   10.5114   23.4872 C   0  0  0  0  0  0  0  0  0  0  0  0
    9.0713   15.4502   21.6914 C   0  0  0  0  0  0  0  0  0  0  0  0
    8.5081   16.4361   20.6713 C   0  0  0  0  0  0  0  0  0  0  0  0
  1  2  1  0
  2  3  1  0
  3  4  1  0
  4  5  1  0
  5  6  1  0
  6  7  2  0
  6  8  2  0
  6  9  1  0
  9 10  1  0
 10 11  2  0
 10 12  1  0
 12 13  1  0
 13 14  2  0
 14 15  1  0
 15 16  2  0
 16 17  1  0
 17 18  2  0
 18 19  1  0
 19 20  1  0
 19 21  2  0
 21 22  1  0
 22 23  2  0
  5 24  1  0
 24 25  1  0
 25  2  1  0
 23 13  1  0
 23 17  1  0
M  END
>  <ref_pdb>  (217) 
x0554_0A

>  <ref_mols>  (217) 
x0554_0A,x0566_0A

>  <original SMILES>  (217) 
CC1CCN(S(=O)(=O)CC(=O)Nc2cccc3nc(Cl)ccc23)CC1

>  <IC50 (nM)>  (217) 
1287.7750304343422

>  <CNNaffinity>  (217) 
5.89016

>  <rationale>  (217) 
-1

$$$$
PV_002287387761
     RDKit          3D

 27 30  0  0  0  0  0  0  0  0999 V2000
   18.7222   11.2136   28.2295 C   0  0  0  0  0  0  0  0  0  0  0  0
   17.6643   11.3917   27.1665 C   0  0  0  0  0  0  0  0  0  0  0  0
   16.8903   12.5616   27.1050 C   0  0  0  0  0  0  0  0  0  0  0  0
   15.9791   12.7822   26.0718 C   0  0  0  0  0  0  0  0  0  0  0  0
   15.8460   11.8365   25.0443 C   0  0  0  0  0  0  0  0  0  0  0  0
   15.0675   12.1632   23.8258 C   0  0  0  0  0  0  0  0  0  0  0  0
   14.0011   12.9693   23.8037 N   0  0  0  0  0  0  0  0  0  0  0  0
   13.4892   12.7566   22.5981 N   0  0  0  0  0  0  0  0  0  0  0  0
   12.5551   13.7112   22.0239 C   0  0  0  0  0  0  0  0  0  0  0  0
   11.2814   13.7026   22.8467 C   0  0  0  0  0  0  0  0  0  0  0  0
   10.9370   14.6412   23.5295 O   0  0  0  0  0  0  0  0  0  0  0  0
   10.5948   12.5284   22.7146 N   0  0  0  0  0  0  0  0  0  0  0  0
    9.7220   11.9268   23.6281 C   0  0  0  0  0  0  0  0  0  0  0  0
    8.8723   12.6579   24.4215 C   0  0  0  0  0  0  0  0  0  0  0  0
    7.9294   11.9971   25.2585 C   0  0  0  0  0  0  0  0  0  0  0  0
    7.8527   10.6200   25.2598 C   0  0  0  0  0  0  0  0  0  0  0  0
    8.7293    9.8497   24.4458 C   0  0  0  0  0  0  0  0  0  0  0  0
    8.5475    8.4917   24.4474 N   0  0  0  0  0  0  0  0  0  0  0  0
    9.3401    7.7813   23.7115 C   0  0  0  0  0  0  0  0  0  0  0  0
    8.9616    6.0856   23.5200 Cl  0  0  0  0  0  0  0  0  0  0  0  0
   10.4811    8.2807   23.0219 C   0  0  0  0  0  0  0  0  0  0  0  0
   10.6726    9.6369   23.0025 C   0  0  0  0  0  0  0  0  0  0  0  0
    9.7316   10.4919   23.6645 C   0  0  0  0  0  0  0  0  0  0  0  0
   14.1443   11.8357   21.8886 N   0  0  0  0  0  0  0  0  0  0  0  0
   15.1988   11.4974   22.6252 N   0  0  0  0  0  0  0  0  0  0  0  0
   16.5417   10.6102   25.1509 C   0  0  0  0  0  0  0  0  0  0  0  0
   17.4260   10.3933   26.2052 C   0  0  0  0  0  0  0  0  0  0  0  0
  1  2  1  0
  2  3  2  0
  3  4  1  0
  4  5  2  0
  5  6  1  0
  6  7  2  0
  7  8  1  0
  8  9  1  0
  9 10  1  0
 10 11  2  0
 10 12  1  0
 12 13  1  0
 13 14  2  0
 14 15  1  0
 15 16  2  0
 16 17  1  0
 17 18  2  0
 18 19  1  0
 19 20  1  0
 19 21  2  0
 21 22  1  0
 22 23  2  0
  8 24  1  0
 24 25  2  0
  5 26  1  0
 26 27  2  0
 27  2  1  0
 25  6  1  0
 23 13  1  0
 23 17  1  0
M  END
>  <ref_pdb>  (218) 
x0554_0A

>  <ref_mols>  (218) 
x0554_0A,x0566_0A

>  <original SMILES>  (218) 
Cc1ccc(-c2nnn(CC(=O)Nc3cccc4nc(Cl)ccc34)n2)cc1

>  <IC50 (nM)>  (218) 
1287.8936443601606

>  <CNNaffinity>  (218) 
5.89012

>  <rationale>  (218) 
-1

$$$$
Z3207006499
     RDKit          3D

 22 24  0  0  0  0  0  0  0  0999 V2000
   13.0303   14.9919   22.3392 C   0  0  0  0  0  0  0  0  0  0  0  0
   12.0033   14.0912   21.6237 C   0  0  1  0  0  0  0  0  0  0  0  0
   10.8024   13.7631   22.5064 C   0  0  0  0  0  0  0  0  0  0  0  0
   10.0917   14.6525   22.9397 O   0  0  0  0  0  0  0  0  0  0  0  0
   10.5779   12.4295   22.7351 N   0  0  0  0  0  0  0  0  0  0  0  0
    9.6598   11.8231   23.6061 C   0  0  0  0  0  0  0  0  0  0  0  0
    8.7623   12.5665   24.3467 C   0  0  0  0  0  0  0  0  0  0  0  0
    7.8265   11.9344   25.2051 C   0  0  0  0  0  0  0  0  0  0  0  0
    7.8015   10.5644   25.3134 C   0  0  0  0  0  0  0  0  0  0  0  0
    8.6988    9.7742   24.5470 C   0  0  0  0  0  0  0  0  0  0  0  0
    8.5364    8.4191   24.6463 N   0  0  0  0  0  0  0  0  0  0  0  0
    9.2624    7.6717   23.8819 C   0  0  0  0  0  0  0  0  0  0  0  0
    8.8389    5.9767   23.7923 Cl  0  0  0  0  0  0  0  0  0  0  0  0
   10.3393    8.1360   23.0774 C   0  0  0  0  0  0  0  0  0  0  0  0
   10.5336    9.4892   22.9810 C   0  0  0  0  0  0  0  0  0  0  0  0
    9.6675   10.3842   23.6914 C   0  0  0  0  0  0  0  0  0  0  0  0
   11.4279   14.7967   20.3919 C   0  0  1  0  0  0  0  0  0  0  0  0
   12.4498   15.1230   19.3029 C   0  0  0  0  0  0  0  0  0  0  0  0
   11.6214   15.1420   18.0201 C   0  0  0  0  0  0  0  0  0  0  0  0
   10.4186   14.2705   18.3375 C   0  0  0  0  0  0  0  0  0  0  0  0
    9.5311   13.9626   17.5745 O   0  0  0  0  0  0  0  0  0  0  0  0
   10.4917   13.9519   19.6694 N   0  0  0  0  0  0  0  0  0  0  0  0
  2  1  1  1
  2  3  1  0
  3  4  2  0
  3  5  1  0
  5  6  1  0
  6  7  2  0
  7  8  1  0
  8  9  2  0
  9 10  1  0
 10 11  2  0
 11 12  1  0
 12 13  1  0
 12 14  2  0
 14 15  1  0
 15 16  2  0
  2 17  1  0
 17 18  1  6
 18 19  1  0
 19 20  1  0
 20 21  2  0
 20 22  1  0
 16  6  1  0
 22 17  1  0
 16 10  1  0
M  END
>  <ref_pdb>  (219) 
x0554_0A

>  <ref_mols>  (219) 
x0554_0A,x0566_0A

>  <original SMILES>  (219) 
C[C@@H](C(=O)Nc1cccc2nc(Cl)ccc12)[C@H]1CCC(=O)N1

>  <IC50 (nM)>  (219) 
1289.496002077975

>  <CNNaffinity>  (219) 
5.88958

>  <rationale>  (219) 
-1

$$$$
PV_006832777521
     RDKit          3D

 26 29  0  0  0  0  0  0  0  0999 V2000
   11.2650   14.2328   23.9102 O   0  0  0  0  0  0  0  0  0  0  0  0
   11.3374   13.5766   22.8882 C   0  0  0  0  0  0  0  0  0  0  0  0
   12.3230   13.9143   21.7949 C   0  0  0  0  0  0  0  0  0  0  0  0
   12.6292   15.4182   21.6403 C   0  0  1  0  0  0  0  0  0  0  0  0
   13.8348   15.5188   20.8911 O   0  0  0  0  0  0  0  0  0  0  0  0
   11.5458   16.2851   20.9731 C   0  0  0  0  0  0  0  0  0  0  0  0
   10.7997   17.1387   21.6207 N   0  0  0  0  0  0  0  0  0  0  0  0
   10.0309   17.7762   20.6589 C   0  0  0  0  0  0  0  0  0  0  0  0
    9.1258   18.8443   20.7943 C   0  0  0  0  0  0  0  0  0  0  0  0
    8.5765   19.3961   19.6367 C   0  0  0  0  0  0  0  0  0  0  0  0
    8.8747   18.8517   18.3636 C   0  0  0  0  0  0  0  0  0  0  0  0
    9.7549   17.7790   18.2222 C   0  0  0  0  0  0  0  0  0  0  0  0
   10.3318   17.2583   19.3875 C   0  0  0  0  0  0  0  0  0  0  0  0
   11.2684   16.2705   19.6198 N   0  0  0  0  0  0  0  0  0  0  0  0
   10.6083   12.4430   22.6653 N   0  0  0  0  0  0  0  0  0  0  0  0
    9.7485   11.8202   23.5856 C   0  0  0  0  0  0  0  0  0  0  0  0
    8.9056   12.5669   24.3795 C   0  0  0  0  0  0  0  0  0  0  0  0
    7.9506   11.9372   25.2222 C   0  0  0  0  0  0  0  0  0  0  0  0
    7.8582   10.5652   25.2478 C   0  0  0  0  0  0  0  0  0  0  0  0
    8.7279    9.7737   24.4518 C   0  0  0  0  0  0  0  0  0  0  0  0
    8.5346    8.4202   24.5056 N   0  0  0  0  0  0  0  0  0  0  0  0
    9.2984    7.6754   23.7771 C   0  0  0  0  0  0  0  0  0  0  0  0
    8.8764    5.9819   23.6561 Cl  0  0  0  0  0  0  0  0  0  0  0  0
   10.4321    8.1399   23.0498 C   0  0  0  0  0  0  0  0  0  0  0  0
   10.6402    9.4957   22.9800 C   0  0  0  0  0  0  0  0  0  0  0  0
    9.7312   10.3842   23.6400 C   0  0  0  0  0  0  0  0  0  0  0  0
  1  2  2  0
  2  3  1  0
  3  4  1  0
  4  5  1  6
  4  6  1  0
  6  7  2  0
  7  8  1  0
  8  9  2  0
  9 10  1  0
 10 11  2  0
 11 12  1  0
 12 13  2  0
 13 14  1  0
  2 15  1  0
 15 16  1  0
 16 17  2  0
 17 18  1  0
 18 19  2  0
 19 20  1  0
 20 21  2  0
 21 22  1  0
 22 23  1  0
 22 24  2  0
 24 25  1  0
 25 26  2  0
 14  6  1  0
 26 16  1  0
 13  8  1  0
 26 20  1  0
M  END
>  <ref_pdb>  (220) 
x0554_0A

>  <ref_mols>  (220) 
x0554_0A,x0566_0A

>  <original SMILES>  (220) 
O=C(C[C@@H](O)c1nc2ccccc2[nH]1)Nc1cccc2nc(Cl)ccc12

>  <IC50 (nM)>  (220) 
1293.689341259707

>  <CNNaffinity>  (220) 
5.88817

>  <rationale>  (220) 
-1

$$$$
PV_006803715198
     RDKit          3D

 24 27  0  0  0  0  0  0  0  0999 V2000
   10.9526   14.5420   23.4986 O   0  0  0  0  0  0  0  0  0  0  0  0
   11.2509   13.6943   22.6750 C   0  0  0  0  0  0  0  0  0  0  0  0
   12.2012   14.0589   21.4936 C   0  0  0  0  0  0  0  0  0  0  0  0
   11.6505   14.6278   20.2577 N   0  0  0  0  0  0  0  0  0  0  0  0
   10.9048   15.8815   20.4207 C   0  0  0  0  0  0  0  0  0  0  0  0
   10.9081   16.5886   19.0625 C   0  0  0  0  0  0  0  0  0  0  0  0
   10.2931   15.7142   18.0666 N   0  0  0  0  0  0  0  0  0  0  0  0
    9.6405   16.0282   16.9031 C   0  0  0  0  0  0  0  0  0  0  0  0
    9.2628   14.8274   16.3707 C   0  0  0  0  0  0  0  0  0  0  0  0
    9.6755   13.7828   17.1619 N   0  0  0  0  0  0  0  0  0  0  0  0
   10.3130   14.3535   18.1584 C   0  0  0  0  0  0  0  0  0  0  0  0
   10.9880   13.6841   19.3358 C   0  0  0  0  0  0  0  0  0  0  0  0
   10.8145   12.3924   22.7425 N   0  0  0  0  0  0  0  0  0  0  0  0
    9.8965   11.8405   23.6556 C   0  0  0  0  0  0  0  0  0  0  0  0
    9.0880   12.6369   24.4414 C   0  0  0  0  0  0  0  0  0  0  0  0
    8.1005   12.0658   25.2859 C   0  0  0  0  0  0  0  0  0  0  0  0
    7.9267   10.7036   25.3228 C   0  0  0  0  0  0  0  0  0  0  0  0
    8.7626    9.8588   24.5447 C   0  0  0  0  0  0  0  0  0  0  0  0
    8.5090    8.5177   24.6315 N   0  0  0  0  0  0  0  0  0  0  0  0
    9.2435    7.7207   23.9285 C   0  0  0  0  0  0  0  0  0  0  0  0
    8.7679    6.0383   23.8874 Cl  0  0  0  0  0  0  0  0  0  0  0  0
   10.3890    8.1148   23.1803 C   0  0  0  0  0  0  0  0  0  0  0  0
   10.6547    9.4579   23.0753 C   0  0  0  0  0  0  0  0  0  0  0  0
    9.7980   10.4050   23.7255 C   0  0  0  0  0  0  0  0  0  0  0  0
  1  2  2  0
  2  3  1  0
  3  4  1  0
  4  5  1  0
  5  6  1  0
  6  7  1  0
  7  8  1  0
  8  9  2  0
  9 10  1  0
 10 11  2  0
 11 12  1  0
  2 13  1  0
 13 14  1  0
 14 15  2  0
 15 16  1  0
 16 17  2  0
 17 18  1  0
 18 19  2  0
 19 20  1  0
 20 21  1  0
 20 22  2  0
 22 23  1  0
 23 24  2  0
 12  4  1  0
 24 14  1  0
 11  7  1  0
 24 18  1  0
M  END
>  <ref_pdb>  (221) 
x0554_0A

>  <ref_mols>  (221) 
x0554_0A,x0566_0A

>  <original SMILES>  (221) 
O=C(CN1CCn2ccnc2C1)Nc1cccc2nc(Cl)ccc12

>  <IC50 (nM)>  (221) 
1296.5820353826284

>  <CNNaffinity>  (221) 
5.8872

>  <rationale>  (221) 
-1

$$$$
PV_007032560907
     RDKit          3D

 25 28  0  0  0  0  0  0  0  0999 V2000
   11.1070   14.6440   24.1843 O   0  0  0  0  0  0  0  0  0  0  0  0
   11.5559   13.8739   23.3603 C   0  0  0  0  0  0  0  0  0  0  0  0
   12.8819   14.1648   22.6769 C   0  0  0  0  0  0  0  0  0  0  0  0
   12.6522   14.5721   21.3164 N   0  0  0  0  0  0  0  0  0  0  0  0
   12.2984   15.8032   20.8961 C   0  0  0  0  0  0  0  0  0  0  0  0
   11.8934   15.6681   19.5909 C   0  0  0  0  0  0  0  0  0  0  0  0
   11.3872   16.7151   18.8872 O   0  0  0  0  0  0  0  0  0  0  0  0
   11.5360   16.7536   17.4717 C   0  0  0  0  0  0  0  0  0  0  0  0
   10.3098   17.2955   16.9052 C   0  0  0  0  0  0  0  0  0  0  0  0
    9.1483   18.0755   17.2176 C   0  0  0  0  0  0  0  0  0  0  0  0
    9.2175   17.1326   15.9942 C   0  0  0  0  0  0  0  0  0  0  0  0
   12.0167   14.2840   19.3163 C   0  0  0  0  0  0  0  0  0  0  0  0
   12.4431   13.6351   20.4005 N   0  0  0  0  0  0  0  0  0  0  0  0
   10.9431   12.7192   22.9502 N   0  0  0  0  0  0  0  0  0  0  0  0
    9.9004   12.0652   23.6273 C   0  0  0  0  0  0  0  0  0  0  0  0
    8.9612   12.7927   24.3256 C   0  0  0  0  0  0  0  0  0  0  0  0
    7.9157   12.1525   25.0384 C   0  0  0  0  0  0  0  0  0  0  0  0
    7.8284   10.7808   25.0413 C   0  0  0  0  0  0  0  0  0  0  0  0
    8.7667   10.0057   24.3096 C   0  0  0  0  0  0  0  0  0  0  0  0
    8.5655    8.6531   24.3256 N   0  0  0  0  0  0  0  0  0  0  0  0
    9.3729    7.9151   23.6382 C   0  0  0  0  0  0  0  0  0  0  0  0
    8.9806    6.2159   23.5000 Cl  0  0  0  0  0  0  0  0  0  0  0  0
   10.5233    8.3947   22.9532 C   0  0  0  0  0  0  0  0  0  0  0  0
   10.7396    9.7497   22.9189 C   0  0  0  0  0  0  0  0  0  0  0  0
    9.8326   10.6307   23.5894 C   0  0  0  0  0  0  0  0  0  0  0  0
  1  2  2  0
  2  3  1  0
  3  4  1  0
  4  5  1  0
  5  6  2  0
  6  7  1  0
  7  8  1  0
  8  9  1  0
  9 10  1  0
 10 11  1  0
  6 12  1  0
 12 13  2  0
  2 14  1  0
 14 15  1  0
 15 16  2  0
 16 17  1  0
 17 18  2  0
 18 19  1  0
 19 20  2  0
 20 21  1  0
 21 22  1  0
 21 23  2  0
 23 24  1  0
 24 25  2  0
 13  4  1  0
 25 15  1  0
 11  9  1  0
 25 19  1  0
M  END
>  <ref_pdb>  (222) 
x0554_0A

>  <ref_mols>  (222) 
x0554_0A,x0566_0A

>  <original SMILES>  (222) 
O=C(Cn1cc(OCC2CC2)cn1)Nc1cccc2nc(Cl)ccc12

>  <IC50 (nM)>  (222) 
1298.1055298792824

>  <CNNaffinity>  (222) 
5.88669

>  <rationale>  (222) 
-1

$$$$
Z5072881379
     RDKit          3D

 24 27  0  0  0  0  0  0  0  0999 V2000
   10.6349   14.5950   23.5364 O   0  0  0  0  0  0  0  0  0  0  0  0
   11.0890   13.7346   22.8000 C   0  0  0  0  0  0  0  0  0  0  0  0
   10.6573   12.4449   22.7947 N   0  0  0  0  0  0  0  0  0  0  0  0
    9.7469   11.8408   23.6608 C   0  0  0  0  0  0  0  0  0  0  0  0
    8.8740   12.5748   24.4364 C   0  0  0  0  0  0  0  0  0  0  0  0
    7.9008   11.9247   25.2377 C   0  0  0  0  0  0  0  0  0  0  0  0
    7.8325   10.5506   25.2555 C   0  0  0  0  0  0  0  0  0  0  0  0
    8.7351    9.7796   24.4742 C   0  0  0  0  0  0  0  0  0  0  0  0
    8.5592    8.4235   24.5056 N   0  0  0  0  0  0  0  0  0  0  0  0
    9.3305    7.6999   23.7627 C   0  0  0  0  0  0  0  0  0  0  0  0
    8.9240    6.0064   23.5945 Cl  0  0  0  0  0  0  0  0  0  0  0  0
   10.4556    8.1862   23.0397 C   0  0  0  0  0  0  0  0  0  0  0  0
   10.6509    9.5407   22.9949 C   0  0  0  0  0  0  0  0  0  0  0  0
    9.7404   10.4070   23.6842 C   0  0  0  0  0  0  0  0  0  0  0  0
   12.1609   14.0401   21.7619 C   0  0  2  0  0  0  0  0  0  0  0  0
   13.0602   15.1977   22.2128 C   0  0  0  0  0  0  0  0  0  0  0  0
   13.4717   15.9395   20.9362 C   0  0  0  0  0  0  0  0  0  0  0  0
   12.8598   15.1670   19.7529 C   0  0  0  0  0  0  0  0  0  0  0  0
   11.6278   14.4439   20.3300 C   0  0  2  0  0  0  0  0  0  0  0  0
   10.3590   15.2858   20.3155 C   0  0  0  0  0  0  0  0  0  0  0  0
    9.1716   14.6974   20.2809 N   0  0  0  0  0  0  0  0  0  0  0  0
    8.3185   15.7392   20.3611 N   0  0  0  0  0  0  0  0  0  0  0  0
    8.9949   16.8955   20.4033 C   0  0  0  0  0  0  0  0  0  0  0  0
   10.2886   16.6506   20.3756 N   0  0  0  0  0  0  0  0  0  0  0  0
  1  2  2  0
  2  3  1  0
  3  4  1  0
  4  5  2  0
  5  6  1  0
  6  7  2  0
  7  8  1  0
  8  9  2  0
  9 10  1  0
 10 11  1  0
 10 12  2  0
 12 13  1  0
 13 14  2  0
 15  2  1  1
 15 16  1  0
 16 17  1  0
 17 18  1  0
 18 19  1  0
 19 20  1  1
 20 21  2  0
 21 22  1  0
 22 23  1  0
 23 24  2  0
 14  4  1  0
 19 15  1  0
 24 20  1  0
 14  8  1  0
M  END
>  <ref_pdb>  (223) 
x0554_0A

>  <ref_mols>  (223) 
x0554_0A,x0566_0A

>  <original SMILES>  (223) 
O=C(Nc1cccc2nc(Cl)ccc12)[C@@H]1CCC[C@@H]1c1nc[nH]n1

>  <IC50 (nM)>  (223) 
1298.613759078455

>  <CNNaffinity>  (223) 
5.88652

>  <rationale>  (223) 
-1

$$$$
PV_006927719517
     RDKit          3D

 25 28  0  0  0  0  0  0  0  0999 V2000
    9.8043   14.5799   22.9586 O   0  0  0  0  0  0  0  0  0  0  0  0
   10.5229   13.7208   22.4767 C   0  0  0  0  0  0  0  0  0  0  0  0
   10.3712   12.3850   22.7401 N   0  0  0  0  0  0  0  0  0  0  0  0
    9.5366   11.7628   23.6757 C   0  0  0  0  0  0  0  0  0  0  0  0
    8.6728   12.4717   24.4860 C   0  0  0  0  0  0  0  0  0  0  0  0
    7.7709   11.7943   25.3502 C   0  0  0  0  0  0  0  0  0  0  0  0
    7.7584   10.4192   25.3939 C   0  0  0  0  0  0  0  0  0  0  0  0
    8.6553    9.6704   24.5856 C   0  0  0  0  0  0  0  0  0  0  0  0
    8.5240    8.3089   24.6331 N   0  0  0  0  0  0  0  0  0  0  0  0
    9.2780    7.6096   23.8508 C   0  0  0  0  0  0  0  0  0  0  0  0
    8.8899    5.9139   23.6721 Cl  0  0  0  0  0  0  0  0  0  0  0  0
   10.3762    8.1243   23.1058 C   0  0  0  0  0  0  0  0  0  0  0  0
   10.5418    9.4836   23.0682 C   0  0  0  0  0  0  0  0  0  0  0  0
    9.6081   10.3282   23.7537 C   0  0  0  0  0  0  0  0  0  0  0  0
   11.7791   14.0494   21.6215 C   0  0  2  0  0  0  0  0  0  0  0  0
   12.7807   14.6308   22.6698 C   0  0  0  0  0  0  0  0  0  0  0  0
   13.9074   15.2646   22.1012 O   0  0  0  0  0  0  0  0  0  0  0  0
   13.5868   16.1613   21.0581 C   0  0  0  0  0  0  0  0  0  0  0  0
   12.8260   15.4613   19.9393 C   0  0  0  0  0  0  0  0  0  0  0  0
   11.5685   14.9956   20.5167 N   0  0  0  0  0  0  0  0  0  0  0  0
   10.4731   14.7361   19.5868 C   0  0  0  0  0  0  0  0  0  0  0  0
    9.9221   16.0382   18.9956 C   0  0  0  0  0  0  0  0  0  0  0  0
   10.5304   16.2232   17.5934 C   0  0  0  0  0  0  0  0  0  0  0  0
   10.9847   14.8151   17.1405 C   0  0  0  0  0  0  0  0  0  0  0  0
   10.8373   13.8724   18.3642 C   0  0  0  0  0  0  0  0  0  0  0  0
  1  2  2  0
  2  3  1  0
  3  4  1  0
  4  5  2  0
  5  6  1  0
  6  7  2  0
  7  8  1  0
  8  9  2  0
  9 10  1  0
 10 11  1  0
 10 12  2  0
 12 13  1  0
 13 14  2  0
 15  2  1  1
 15 16  1  0
 16 17  1  0
 17 18  1  0
 18 19  1  0
 19 20  1  0
 20 21  1  0
 21 22  1  0
 22 23  1  0
 23 24  1  0
 24 25  1  0
 14  4  1  0
 20 15  1  0
 25 21  1  0
 14  8  1  0
M  END
>  <ref_pdb>  (224) 
x0554_0A

>  <ref_mols>  (224) 
x0554_0A,x0566_0A

>  <original SMILES>  (224) 
O=C(Nc1cccc2nc(Cl)ccc12)[C@@H]1COCCN1C1CCCC1

>  <IC50 (nM)>  (224) 
1303.3768410487328

>  <CNNaffinity>  (224) 
5.88493

>  <rationale>  (224) 
-1

$$$$
Z3207006820
     RDKit          3D

 25 26  0  0  0  0  0  0  0  0999 V2000
    8.4998   17.2182   16.7573 C   0  0  0  0  0  0  0  0  0  0  0  0
    9.9255   17.6824   16.5528 C   0  0  0  0  0  0  0  0  0  0  0  0
   10.1787   18.9967   17.2965 C   0  0  0  0  0  0  0  0  0  0  0  0
   10.9185   16.7194   16.8814 O   0  0  0  0  0  0  0  0  0  0  0  0
   10.8426   16.1558   18.1620 C   0  0  0  0  0  0  0  0  0  0  0  0
   11.8562   15.0328   18.0988 C   0  0  0  0  0  0  0  0  0  0  0  0
   11.7217   13.9358   19.4418 S   0  0  0  0  0  6  0  0  0  0  0  0
   10.3219   13.5507   19.5807 O   0  0  0  0  0  0  0  0  0  0  0  0
   12.8138   12.9961   19.3683 O   0  0  0  0  0  0  0  0  0  0  0  0
   11.8631   14.9647   20.7697 N   0  0  0  0  0  0  0  0  0  0  0  0
   12.4694   14.4269   22.0484 C   0  0  0  0  0  0  0  0  0  0  0  0
   11.6488   13.7150   23.1995 C   0  0  0  0  0  0  0  0  0  0  0  0
   11.8090   14.0177   24.3639 O   0  0  0  0  0  0  0  0  0  0  0  0
   10.8041   12.7109   22.7990 N   0  0  0  0  0  0  0  0  0  0  0  0
    9.8794   12.0510   23.6429 C   0  0  0  0  0  0  0  0  0  0  0  0
    9.0338   12.7821   24.4468 C   0  0  0  0  0  0  0  0  0  0  0  0
    8.0184   12.1481   25.2127 C   0  0  0  0  0  0  0  0  0  0  0  0
    7.8872   10.7798   25.1673 C   0  0  0  0  0  0  0  0  0  0  0  0
    8.7671    9.9984   24.3730 C   0  0  0  0  0  0  0  0  0  0  0  0
    8.5559    8.6462   24.3888 N   0  0  0  0  0  0  0  0  0  0  0  0
    9.3493    7.9115   23.6808 C   0  0  0  0  0  0  0  0  0  0  0  0
    8.9436    6.2177   23.5323 Cl  0  0  0  0  0  0  0  0  0  0  0  0
   10.4941    8.3866   22.9808 C   0  0  0  0  0  0  0  0  0  0  0  0
   10.7068    9.7426   22.9331 C   0  0  0  0  0  0  0  0  0  0  0  0
    9.8044   10.6199   23.6115 C   0  0  0  0  0  0  0  0  0  0  0  0
  1  2  1  0
  2  3  1  0
  2  4  1  0
  4  5  1  0
  5  6  1  0
  6  7  1  0
  7  8  2  0
  7  9  2  0
  7 10  1  0
 10 11  1  0
 11 12  1  0
 12 13  2  0
 12 14  1  0
 14 15  1  0
 15 16  2  0
 16 17  1  0
 17 18  2  0
 18 19  1  0
 19 20  2  0
 20 21  1  0
 21 22  1  0
 21 23  2  0
 23 24  1  0
 24 25  2  0
 25 15  1  0
 25 19  1  0
M  END
>  <ref_pdb>  (225) 
x0554_0A

>  <ref_mols>  (225) 
x0554_0A,x0566_0A

>  <original SMILES>  (225) 
CC(C)OCCS(=O)(=O)NCC(=O)Nc1cccc2nc(Cl)ccc12

>  <IC50 (nM)>  (225) 
1305.0285115303495

>  <CNNaffinity>  (225) 
5.88438

>  <rationale>  (225) 
-1

$$$$
PV_007136593592
     RDKit          3D

 22 24  0  0  0  0  0  0  0  0999 V2000
   10.8635   14.7724   23.5163 O   0  0  0  0  0  0  0  0  0  0  0  0
   11.2875   13.8744   22.8155 C   0  0  0  0  0  0  0  0  0  0  0  0
   12.4726   14.0732   21.8534 C   0  0  0  0  0  0  0  0  0  0  0  0
   12.0757   14.6202   20.4986 C   0  0  0  0  0  0  0  0  0  0  0  0
   11.4552   15.8371   20.3924 C   0  0  0  0  0  0  0  0  0  0  0  0
   11.1164   16.3627   19.0915 C   0  0  0  0  0  0  0  0  0  0  0  0
   11.3857   15.7289   17.9773 N   0  0  0  0  0  0  0  0  0  0  0  0
   11.9976   14.5253   18.1100 N   0  0  0  0  0  0  0  0  0  0  0  0
   12.3724   13.8491   19.2634 C   0  0  0  0  0  0  0  0  0  0  0  0
   12.8845   12.7461   19.1711 O   0  0  0  0  0  0  0  0  0  0  0  0
   10.7698   12.6090   22.7842 N   0  0  0  0  0  0  0  0  0  0  0  0
    9.8353   12.0008   23.6341 C   0  0  0  0  0  0  0  0  0  0  0  0
    8.9725   12.7256   24.4276 C   0  0  0  0  0  0  0  0  0  0  0  0
    7.9930   12.0669   25.2235 C   0  0  0  0  0  0  0  0  0  0  0  0
    7.8903   10.6945   25.2024 C   0  0  0  0  0  0  0  0  0  0  0  0
    8.7720    9.9248   24.3969 C   0  0  0  0  0  0  0  0  0  0  0  0
    8.5751    8.5692   24.4036 N   0  0  0  0  0  0  0  0  0  0  0  0
    9.3621    7.8456   23.6759 C   0  0  0  0  0  0  0  0  0  0  0  0
    8.9718    6.1480   23.5177 Cl  0  0  0  0  0  0  0  0  0  0  0  0
   10.4943    8.3369   22.9690 C   0  0  0  0  0  0  0  0  0  0  0  0
   10.6917    9.6929   22.9319 C   0  0  0  0  0  0  0  0  0  0  0  0
    9.7884   10.5618   23.6242 C   0  0  0  0  0  0  0  0  0  0  0  0
  1  2  2  0
  2  3  1  0
  3  4  1  0
  4  5  2  0
  5  6  1  0
  6  7  2  0
  7  8  1  0
  8  9  1  0
  9 10  2  0
  2 11  1  0
 11 12  1  0
 12 13  2  0
 13 14  1  0
 14 15  2  0
 15 16  1  0
 16 17  2  0
 17 18  1  0
 18 19  1  0
 18 20  2  0
 20 21  1  0
 21 22  2  0
  9  4  1  0
 22 12  1  0
 22 16  1  0
M  END
>  <ref_pdb>  (226) 
x0554_0A

>  <ref_mols>  (226) 
x0554_0A,x0566_0A

>  <original SMILES>  (226) 
O=C(Cc1ccn[nH]c1=O)Nc1cccc2nc(Cl)ccc12

>  <IC50 (nM)>  (226) 
1307.946560079684

>  <CNNaffinity>  (226) 
5.88341

>  <rationale>  (226) 
-1

$$$$
PV_006908020010
     RDKit          3D

 22 24  0  0  0  0  0  0  0  0999 V2000
   10.9853   15.6851   16.7512 C   0  0  0  0  0  0  0  0  0  0  0  0
   11.4394   15.3155   18.1349 C   0  0  0  0  0  0  0  0  0  0  0  0
   11.1156   16.1001   19.2710 C   0  0  0  0  0  0  0  0  0  0  0  0
   11.4622   15.7499   20.5172 N   0  0  0  0  0  0  0  0  0  0  0  0
   12.1562   14.5980   20.6516 C   0  0  0  0  0  0  0  0  0  0  0  0
   12.5083   14.2172   22.0601 C   0  0  0  0  0  0  0  0  0  0  0  0
   11.2333   13.9800   22.8558 C   0  0  0  0  0  0  0  0  0  0  0  0
   10.6939   14.8675   23.4791 O   0  0  0  0  0  0  0  0  0  0  0  0
   10.7657   12.6945   22.7750 N   0  0  0  0  0  0  0  0  0  0  0  0
    9.8261   12.0480   23.5974 C   0  0  0  0  0  0  0  0  0  0  0  0
    8.9567   12.7646   24.3922 C   0  0  0  0  0  0  0  0  0  0  0  0
    7.9912   12.1032   25.1973 C   0  0  0  0  0  0  0  0  0  0  0  0
    7.8956   10.7336   25.1770 C   0  0  0  0  0  0  0  0  0  0  0  0
    8.7730    9.9697   24.3649 C   0  0  0  0  0  0  0  0  0  0  0  0
    8.5757    8.6148   24.3763 N   0  0  0  0  0  0  0  0  0  0  0  0
    9.3661    7.8870   23.6597 C   0  0  0  0  0  0  0  0  0  0  0  0
    8.9805    6.1873   23.5113 Cl  0  0  0  0  0  0  0  0  0  0  0  0
   10.5011    8.3739   22.9531 C   0  0  0  0  0  0  0  0  0  0  0  0
   10.6955    9.7320   22.9067 C   0  0  0  0  0  0  0  0  0  0  0  0
    9.7899   10.6070   23.5880 C   0  0  0  0  0  0  0  0  0  0  0  0
   12.5040   13.8297   19.5200 C   0  0  0  0  0  0  0  0  0  0  0  0
   12.1579   14.1903   18.2701 N   0  0  0  0  0  0  0  0  0  0  0  0
  1  2  1  0
  2  3  2  0
  3  4  1  0
  4  5  2  0
  5  6  1  0
  6  7  1  0
  7  8  2  0
  7  9  1  0
  9 10  1  0
 10 11  2  0
 11 12  1  0
 12 13  2  0
 13 14  1  0
 14 15  2  0
 15 16  1  0
 16 17  1  0
 16 18  2  0
 18 19  1  0
 19 20  2  0
  5 21  1  0
 21 22  2  0
 22  2  1  0
 20 10  1  0
 20 14  1  0
M  END
>  <ref_pdb>  (227) 
x0554_0A

>  <ref_mols>  (227) 
x0554_0A,x0566_0A

>  <original SMILES>  (227) 
Cc1cnc(CC(=O)Nc2cccc3nc(Cl)ccc23)cn1

>  <IC50 (nM)>  (227) 
1311.8675813944924

>  <CNNaffinity>  (227) 
5.88211

>  <rationale>  (227) 
-1

$$$$
Z3584328924
     RDKit          3D

 23 26  0  0  0  0  0  0  0  0999 V2000
    8.6608   14.0366   22.1956 O   0  0  0  0  0  0  0  0  0  0  0  0
    9.6823   13.3919   22.2805 C   0  0  0  0  0  0  0  0  0  0  0  0
    9.7847   12.1934   22.9346 N   0  0  0  0  0  0  0  0  0  0  0  0
    8.8837   11.5745   23.7961 C   0  0  0  0  0  0  0  0  0  0  0  0
    7.9311   12.2663   24.5079 C   0  0  0  0  0  0  0  0  0  0  0  0
    7.1839   11.6058   25.5212 C   0  0  0  0  0  0  0  0  0  0  0  0
    7.3944   10.2669   25.7761 C   0  0  0  0  0  0  0  0  0  0  0  0
    8.2942    9.5188   24.9678 C   0  0  0  0  0  0  0  0  0  0  0  0
    8.3312    8.1612   25.1743 N   0  0  0  0  0  0  0  0  0  0  0  0
    8.9489    7.4527   24.2852 C   0  0  0  0  0  0  0  0  0  0  0  0
    8.6559    5.7304   24.2378 Cl  0  0  0  0  0  0  0  0  0  0  0  0
    9.7825    7.9649   23.2513 C   0  0  0  0  0  0  0  0  0  0  0  0
    9.8316    9.3211   23.0884 C   0  0  0  0  0  0  0  0  0  0  0  0
    9.0449   10.1586   23.9428 C   0  0  0  0  0  0  0  0  0  0  0  0
   11.0218   13.8455   21.7593 C   0  0  2  0  0  0  0  0  0  0  0  0
   11.8104   14.6528   22.8201 C   0  0  0  0  0  0  0  0  0  0  0  0
   13.0968   15.0938   22.1226 C   0  0  0  0  0  0  0  0  0  0  0  0
   12.7781   16.1048   21.0284 C   0  0  0  0  0  0  0  0  0  0  0  0
   11.7779   15.5444   20.1218 N   0  0  0  0  0  0  0  0  0  0  0  0
   11.4867   15.8317   18.8253 C   0  0  0  0  0  0  0  0  0  0  0  0
   10.4870   15.1017   18.4052 N   0  0  0  0  0  0  0  0  0  0  0  0
   10.1142   14.2842   19.4478 N   0  0  0  0  0  0  0  0  0  0  0  0
   10.8858   14.5649   20.4578 C   0  0  0  0  0  0  0  0  0  0  0  0
  1  2  2  0
  2  3  1  0
  3  4  1  0
  4  5  2  0
  5  6  1  0
  6  7  2  0
  7  8  1  0
  8  9  2  0
  9 10  1  0
 10 11  1  0
 10 12  2  0
 12 13  1  0
 13 14  2  0
 15  2  1  1
 15 16  1  0
 16 17  1  0
 17 18  1  0
 18 19  1  0
 19 20  1  0
 20 21  2  0
 21 22  1  0
 22 23  2  0
 14  4  1  0
 23 15  1  0
 14  8  1  0
 23 19  1  0
M  END
>  <ref_pdb>  (228) 
x0554_0A

>  <ref_mols>  (228) 
x0554_0A,x0566_0A

>  <original SMILES>  (228) 
O=C(Nc1cccc2nc(Cl)ccc12)[C@@H]1CCCn2cnnc21

>  <IC50 (nM)>  (228) 
1312.8647868345022

>  <CNNaffinity>  (228) 
5.88178

>  <rationale>  (228) 
-1

$$$$
Z3207006496
     RDKit          3D

 22 24  0  0  0  0  0  0  0  0999 V2000
   11.6968   16.7907   16.9508 O   0  0  0  0  0  0  0  0  0  0  0  0
   11.6480   16.1618   17.9894 C   0  0  0  0  0  0  0  0  0  0  0  0
   10.5739   16.3662   19.0443 C   0  0  0  0  0  0  0  0  0  0  0  0
   11.0018   15.9724   20.4700 C   0  0  0  0  0  0  0  0  0  0  0  0
   11.6938   14.5969   20.4581 C   0  0  2  0  0  0  0  0  0  0  0  0
   12.2079   14.1834   21.8594 C   0  0  0  0  0  0  0  0  0  0  0  0
   11.1146   13.9166   22.8803 C   0  0  0  0  0  0  0  0  0  0  0  0
   10.6700   14.7884   23.6043 O   0  0  0  0  0  0  0  0  0  0  0  0
   10.6647   12.6253   22.8661 N   0  0  0  0  0  0  0  0  0  0  0  0
    9.7547   11.9776   23.7060 C   0  0  0  0  0  0  0  0  0  0  0  0
    8.8789   12.6793   24.5068 C   0  0  0  0  0  0  0  0  0  0  0  0
    7.9148   11.9943   25.2962 C   0  0  0  0  0  0  0  0  0  0  0  0
    7.8399   10.6207   25.2600 C   0  0  0  0  0  0  0  0  0  0  0  0
    8.7360    9.8765   24.4469 C   0  0  0  0  0  0  0  0  0  0  0  0
    8.5606    8.5183   24.4424 N   0  0  0  0  0  0  0  0  0  0  0  0
    9.3507    7.8156   23.6993 C   0  0  0  0  0  0  0  0  0  0  0  0
    8.9746    6.1175   23.5144 Cl  0  0  0  0  0  0  0  0  0  0  0  0
   10.4725    8.3301   22.9909 C   0  0  0  0  0  0  0  0  0  0  0  0
   10.6556    9.6894   22.9708 C   0  0  0  0  0  0  0  0  0  0  0  0
    9.7414   10.5373   23.6792 C   0  0  0  0  0  0  0  0  0  0  0  0
   12.8774   14.5678   19.4798 C   0  0  0  0  0  0  0  0  0  0  0  0
   12.5664   15.1854   18.2073 N   0  0  0  0  0  0  0  0  0  0  0  0
  1  2  2  0
  2  3  1  0
  3  4  1  0
  4  5  1  0
  5  6  1  1
  6  7  1  0
  7  8  2  0
  7  9  1  0
  9 10  1  0
 10 11  2  0
 11 12  1  0
 12 13  2  0
 13 14  1  0
 14 15  2  0
 15 16  1  0
 16 17  1  0
 16 18  2  0
 18 19  1  0
 19 20  2  0
  5 21  1  0
 21 22  1  0
 22  2  1  0
 20 10  1  0
 20 14  1  0
M  END
>  <ref_pdb>  (229) 
x0554_0A

>  <ref_mols>  (229) 
x0554_0A,x0566_0A

>  <original SMILES>  (229) 
O=C1CC[C@H](CC(=O)Nc2cccc3nc(Cl)ccc23)CN1

>  <IC50 (nM)>  (229) 
1313.1066477410122

>  <CNNaffinity>  (229) 
5.8817

>  <rationale>  (229) 
-1

$$$$
Z3091962267
     RDKit          3D

 23 25  0  0  0  0  0  0  0  0999 V2000
   12.9711   14.9853   19.5144 C   0  0  0  0  0  0  0  0  0  0  0  0
   11.8620   14.8275   20.5496 C   0  0  1  0  0  0  0  0  0  0  0  0
   12.3971   14.0490   21.7409 C   0  0  0  0  0  0  0  0  0  0  0  0
   11.2861   13.8165   22.7337 C   0  0  0  0  0  0  0  0  0  0  0  0
   11.0477   14.6256   23.6143 O   0  0  0  0  0  0  0  0  0  0  0  0
   10.5999   12.6520   22.5542 N   0  0  0  0  0  0  0  0  0  0  0  0
    9.7374   12.0401   23.4855 C   0  0  0  0  0  0  0  0  0  0  0  0
    8.9225   12.7915   24.3050 C   0  0  0  0  0  0  0  0  0  0  0  0
    7.9736   12.1669   25.1600 C   0  0  0  0  0  0  0  0  0  0  0  0
    7.8655   10.7957   25.1850 C   0  0  0  0  0  0  0  0  0  0  0  0
    8.7189    9.9951   24.3792 C   0  0  0  0  0  0  0  0  0  0  0  0
    8.5279    8.6407   24.4386 N   0  0  0  0  0  0  0  0  0  0  0  0
    9.3006    7.8978   23.7154 C   0  0  0  0  0  0  0  0  0  0  0  0
    8.9034    6.1986   23.6199 Cl  0  0  0  0  0  0  0  0  0  0  0  0
   10.4181    8.3652   22.9654 C   0  0  0  0  0  0  0  0  0  0  0  0
   10.6097    9.7218   22.8736 C   0  0  0  0  0  0  0  0  0  0  0  0
    9.7094   10.6055   23.5491 C   0  0  0  0  0  0  0  0  0  0  0  0
   11.2745   16.1975   20.9713 C   0  0  0  0  0  0  0  0  0  0  0  0
   10.3149   16.6228   19.8532 C   0  0  0  0  0  0  0  0  0  0  0  0
    9.6809   15.0822   19.2322 S   0  0  0  0  0  6  0  0  0  0  0  0
   10.0270   14.8930   17.8319 O   0  0  0  0  0  0  0  0  0  0  0  0
    8.3381   14.9092   19.7246 O   0  0  0  0  0  0  0  0  0  0  0  0
   10.7447   14.0354   20.0000 N   0  0  0  0  0  0  0  0  0  0  0  0
  2  1  1  6
  2  3  1  0
  3  4  1  0
  4  5  2  0
  4  6  1  0
  6  7  1  0
  7  8  2  0
  8  9  1  0
  9 10  2  0
 10 11  1  0
 11 12  2  0
 12 13  1  0
 13 14  1  0
 13 15  2  0
 15 16  1  0
 16 17  2  0
  2 18  1  0
 18 19  1  0
 19 20  1  0
 20 21  2  0
 20 22  2  0
 20 23  1  0
 23  2  1  0
 17  7  1  0
 17 11  1  0
M  END
>  <ref_pdb>  (230) 
x0554_0A

>  <ref_mols>  (230) 
x0554_0A,x0566_0A

>  <original SMILES>  (230) 
C[C@@]1(CC(=O)Nc2cccc3nc(Cl)ccc23)CCS(=O)(=O)N1

>  <IC50 (nM)>  (230) 
1314.7101020359275

>  <CNNaffinity>  (230) 
5.88117

>  <rationale>  (230) 
-1

$$$$
Z3091962993
     RDKit          3D

 23 26  0  0  0  0  0  0  0  0999 V2000
    9.9606   14.9414   23.2430 O   0  0  0  0  0  0  0  0  0  0  0  0
   10.4944   14.0244   22.6503 C   0  0  0  0  0  0  0  0  0  0  0  0
    9.8896   12.7972   22.4788 N   0  0  0  0  0  0  0  0  0  0  0  0
    9.2382   12.0887   23.5061 C   0  0  0  0  0  0  0  0  0  0  0  0
    8.4089   12.7424   24.3890 C   0  0  0  0  0  0  0  0  0  0  0  0
    7.6748   12.0174   25.3638 C   0  0  0  0  0  0  0  0  0  0  0  0
    7.7668   10.6455   25.4120 C   0  0  0  0  0  0  0  0  0  0  0  0
    8.5994    9.9471   24.4961 C   0  0  0  0  0  0  0  0  0  0  0  0
    8.5387    8.5795   24.5392 N   0  0  0  0  0  0  0  0  0  0  0  0
    9.3009    7.9271   23.7237 C   0  0  0  0  0  0  0  0  0  0  0  0
    8.9971    6.2154   23.5502 Cl  0  0  0  0  0  0  0  0  0  0  0  0
   10.3276    8.5103   22.9276 C   0  0  0  0  0  0  0  0  0  0  0  0
   10.3887    9.8810   22.8603 C   0  0  0  0  0  0  0  0  0  0  0  0
    9.4312   10.6654   23.5834 C   0  0  0  0  0  0  0  0  0  0  0  0
   11.9079   14.1046   22.0600 C   0  0  0  0  0  0  0  0  0  0  0  0
   12.0159   14.7934   20.6945 C   0  0  0  0  0  0  0  0  0  0  0  0
   11.5247   13.9284   19.5171 C   0  0  0  0  0  0  0  0  0  0  0  0
   11.5342   14.6966   18.1737 C   0  0  0  0  0  0  0  0  0  0  0  0
   11.5179   16.1118   18.3049 O   0  0  0  0  0  0  0  0  0  0  0  0
   10.7209   16.5807   19.3713 C   0  0  0  0  0  0  0  0  0  0  0  0
   11.3044   16.1716   20.7350 C   0  0  0  0  0  0  0  0  0  0  0  0
   12.8289   12.9651   22.4234 C   0  0  0  0  0  0  0  0  0  0  0  0
   13.0400   14.3119   23.0534 C   0  0  0  0  0  0  0  0  0  0  0  0
  1  2  2  0
  2  3  1  0
  3  4  1  0
  4  5  2  0
  5  6  1  0
  6  7  2  0
  7  8  1  0
  8  9  2  0
  9 10  1  0
 10 11  1  0
 10 12  2  0
 12 13  1  0
 13 14  2  0
  2 15  1  0
 15 16  1  0
 16 17  1  0
 17 18  1  0
 18 19  1  0
 19 20  1  0
 20 21  1  0
 15 22  1  0
 22 23  1  0
 14  4  1  0
 23 15  1  0
 14  8  1  0
 21 16  1  0
M  END
>  <ref_pdb>  (231) 
x0554_0A

>  <ref_mols>  (231) 
x0554_0A,x0566_0A

>  <original SMILES>  (231) 
O=C(Nc1cccc2nc(Cl)ccc12)C1(C2CCOCC2)CC1

>  <IC50 (nM)>  (231) 
1328.0058862437295

>  <CNNaffinity>  (231) 
5.8768

>  <rationale>  (231) 
-1

$$$$
Z3673052692
     RDKit          3D

 21 22  0  0  0  0  0  0  0  0999 V2000
   11.5215   16.0998   18.7589 C   0  0  0  0  0  0  0  0  0  0  0  0
   11.4302   14.9722   19.8157 C   0  0  0  0  0  0  0  0  0  0  0  0
    9.9321   14.7340   20.1059 C   0  0  0  0  0  0  0  0  0  0  0  0
   12.1053   13.7512   19.2949 C   0  0  0  0  0  0  0  0  0  0  0  0
   12.7759   12.8391   19.0512 N   0  0  0  0  0  0  0  0  0  0  0  0
   12.2407   15.3732   21.0908 C   0  0  0  0  0  0  0  0  0  0  0  0
   12.4493   14.2727   22.1612 C   0  0  0  0  0  0  0  0  0  0  0  0
   11.2103   13.9430   22.9773 C   0  0  0  0  0  0  0  0  0  0  0  0
   10.6711   14.7988   23.6539 O   0  0  0  0  0  0  0  0  0  0  0  0
   10.7642   12.6491   22.8756 N   0  0  0  0  0  0  0  0  0  0  0  0
    9.8041   11.9853   23.6531 C   0  0  0  0  0  0  0  0  0  0  0  0
    8.9114   12.6920   24.4309 C   0  0  0  0  0  0  0  0  0  0  0  0
    7.9458   12.0252   25.2325 C   0  0  0  0  0  0  0  0  0  0  0  0
    7.8707   10.6519   25.2142 C   0  0  0  0  0  0  0  0  0  0  0  0
    8.7597    9.8979   24.4016 C   0  0  0  0  0  0  0  0  0  0  0  0
    8.5691    8.5421   24.4097 N   0  0  0  0  0  0  0  0  0  0  0  0
    9.3546    7.8194   23.6824 C   0  0  0  0  0  0  0  0  0  0  0  0
    8.9613    6.1212   23.5390 Cl  0  0  0  0  0  0  0  0  0  0  0  0
   10.4841    8.3143   22.9738 C   0  0  0  0  0  0  0  0  0  0  0  0
   10.6750    9.6736   22.9280 C   0  0  0  0  0  0  0  0  0  0  0  0
    9.7730   10.5435   23.6251 C   0  0  0  0  0  0  0  0  0  0  0  0
  1  2  1  0
  2  3  1  0
  2  4  1  0
  4  5  3  0
  2  6  1  0
  6  7  1  0
  7  8  1  0
  8  9  2  0
  8 10  1  0
 10 11  1  0
 11 12  2  0
 12 13  1  0
 13 14  2  0
 14 15  1  0
 15 16  2  0
 16 17  1  0
 17 18  1  0
 17 19  2  0
 19 20  1  0
 20 21  2  0
 21 11  1  0
 21 15  1  0
M  END
>  <ref_pdb>  (232) 
x0554_0A

>  <ref_mols>  (232) 
x0554_0A,x0566_0A

>  <original SMILES>  (232) 
CC(C)(C#N)CCC(=O)Nc1cccc2nc(Cl)ccc12

>  <IC50 (nM)>  (232) 
1334.9346318767095

>  <CNNaffinity>  (232) 
5.87454

>  <rationale>  (232) 
-1

$$$$
PV_002193484922
     RDKit          3D

 25 28  0  0  0  0  0  0  0  0999 V2000
   11.1057   14.6488   23.6060 O   0  0  0  0  0  0  0  0  0  0  0  0
   11.3872   13.8264   22.7539 C   0  0  0  0  0  0  0  0  0  0  0  0
   12.4385   14.1215   21.6577 C   0  0  0  0  0  0  0  0  0  0  0  0
   11.9036   14.4862   20.3424 N   0  0  0  0  0  0  0  0  0  0  0  0
   12.1610   13.7753   19.1708 C   0  0  0  0  0  0  0  0  0  0  0  0
   12.8463   12.7793   19.1093 O   0  0  0  0  0  0  0  0  0  0  0  0
   11.4165   14.4734   18.0405 C   0  0  0  0  0  0  0  0  0  0  0  0
   10.8608   15.7002   18.6992 C   0  0  0  0  0  0  0  0  0  0  0  0
   10.1505   16.7761   18.1919 C   0  0  0  0  0  0  0  0  0  0  0  0
    9.6909   17.7632   19.0738 C   0  0  0  0  0  0  0  0  0  0  0  0
    9.9555   17.6732   20.4502 C   0  0  0  0  0  0  0  0  0  0  0  0
   10.6969   16.6049   20.9701 C   0  0  0  0  0  0  0  0  0  0  0  0
   11.1440   15.6294   20.0736 C   0  0  0  0  0  0  0  0  0  0  0  0
   10.8267   12.5829   22.6798 N   0  0  0  0  0  0  0  0  0  0  0  0
    9.9053   11.9932   23.5625 C   0  0  0  0  0  0  0  0  0  0  0  0
    9.0686   12.7546   24.3476 C   0  0  0  0  0  0  0  0  0  0  0  0
    8.0709   12.1429   25.1533 C   0  0  0  0  0  0  0  0  0  0  0  0
    7.9293   10.7751   25.1539 C   0  0  0  0  0  0  0  0  0  0  0  0
    8.7927    9.9666   24.3683 C   0  0  0  0  0  0  0  0  0  0  0  0
    8.5581    8.6181   24.4002 N   0  0  0  0  0  0  0  0  0  0  0  0
    9.3358    7.8565   23.7008 C   0  0  0  0  0  0  0  0  0  0  0  0
    8.9128    6.1635   23.5886 Cl  0  0  0  0  0  0  0  0  0  0  0  0
   10.4854    8.2995   22.9882 C   0  0  0  0  0  0  0  0  0  0  0  0
   10.7175    9.6501   22.9234 C   0  0  0  0  0  0  0  0  0  0  0  0
    9.8319   10.5568   23.5884 C   0  0  0  0  0  0  0  0  0  0  0  0
  1  2  2  0
  2  3  1  0
  3  4  1  0
  4  5  1  0
  5  6  2  0
  5  7  1  0
  7  8  1  0
  8  9  2  0
  9 10  1  0
 10 11  2  0
 11 12  1  0
 12 13  2  0
  2 14  1  0
 14 15  1  0
 15 16  2  0
 16 17  1  0
 17 18  2  0
 18 19  1  0
 19 20  2  0
 20 21  1  0
 21 22  1  0
 21 23  2  0
 23 24  1  0
 24 25  2  0
 13  4  1  0
 25 15  1  0
 13  8  1  0
 25 19  1  0
M  END
>  <ref_pdb>  (233) 
x0554_0A

>  <ref_mols>  (233) 
x0554_0A,x0566_0A

>  <original SMILES>  (233) 
O=C(CN1C(=O)Cc2ccccc21)Nc1cccc2nc(Cl)ccc12

>  <IC50 (nM)>  (233) 
1340.4789546376542

>  <CNNaffinity>  (233) 
5.87274

>  <rationale>  (233) 
-1

$$$$
PV_002491659577
     RDKit          3D

 21 23  0  0  0  0  0  0  0  0999 V2000
   11.0222   16.4303   17.9118 C   0  0  0  0  0  0  0  0  0  0  0  0
   11.4481   15.3681   18.8598 C   0  0  0  0  0  0  0  0  0  0  0  0
   11.6558   14.1256   18.4735 N   0  0  0  0  0  0  0  0  0  0  0  0
   12.0576   13.5388   19.6220 N   0  0  0  0  0  0  0  0  0  0  0  0
   12.0735   14.4222   20.6290 C   0  0  0  0  0  0  0  0  0  0  0  0
   12.4416   14.0874   22.0233 C   0  0  0  0  0  0  0  0  0  0  0  0
   11.1793   13.8949   22.8371 C   0  0  0  0  0  0  0  0  0  0  0  0
   10.6963   14.7979   23.4847 O   0  0  0  0  0  0  0  0  0  0  0  0
   10.6624   12.6305   22.7506 N   0  0  0  0  0  0  0  0  0  0  0  0
    9.7752   11.9740   23.6237 C   0  0  0  0  0  0  0  0  0  0  0  0
    8.9164   12.6782   24.4379 C   0  0  0  0  0  0  0  0  0  0  0  0
    7.9745   12.0011   25.2636 C   0  0  0  0  0  0  0  0  0  0  0  0
    7.9005   10.6265   25.2428 C   0  0  0  0  0  0  0  0  0  0  0  0
    8.7800    9.8771   24.4153 C   0  0  0  0  0  0  0  0  0  0  0  0
    8.5984    8.5185   24.4037 N   0  0  0  0  0  0  0  0  0  0  0  0
    9.3845    7.8145   23.6575 C   0  0  0  0  0  0  0  0  0  0  0  0
    9.0062    6.1156   23.4691 Cl  0  0  0  0  0  0  0  0  0  0  0  0
   10.5148    8.3247   22.9576 C   0  0  0  0  0  0  0  0  0  0  0  0
   10.6998    9.6848   22.9382 C   0  0  0  0  0  0  0  0  0  0  0  0
    9.7784   10.5343   23.6315 C   0  0  0  0  0  0  0  0  0  0  0  0
   11.6869   15.5969   20.1880 N   0  0  0  0  0  0  0  0  0  0  0  0
  1  2  1  0
  2  3  2  0
  3  4  1  0
  4  5  1  0
  5  6  1  0
  6  7  1  0
  7  8  2  0
  7  9  1  0
  9 10  1  0
 10 11  2  0
 11 12  1  0
 12 13  2  0
 13 14  1  0
 14 15  2  0
 15 16  1  0
 16 17  1  0
 16 18  2  0
 18 19  1  0
 19 20  2  0
  5 21  2  0
 21  2  1  0
 20 10  1  0
 20 14  1  0
M  END
>  <ref_pdb>  (234) 
x0554_0A

>  <ref_mols>  (234) 
x0554_0A,x0566_0A

>  <original SMILES>  (234) 
Cc1n[nH]c(CC(=O)Nc2cccc3nc(Cl)ccc23)n1

>  <IC50 (nM)>  (234) 
1341.6832563679145

>  <CNNaffinity>  (234) 
5.87235

>  <rationale>  (234) 
-1

$$$$
PV_006961006548
     RDKit          3D

 23 26  0  0  0  0  0  0  0  0999 V2000
    9.7851   14.3423   22.7886 O   0  0  0  0  0  0  0  0  0  0  0  0
   10.4869   13.4189   22.4278 C   0  0  0  0  0  0  0  0  0  0  0  0
   10.2986   12.1147   22.7999 N   0  0  0  0  0  0  0  0  0  0  0  0
    9.4377   11.5746   23.7600 C   0  0  0  0  0  0  0  0  0  0  0  0
    8.5920   12.3620   24.5144 C   0  0  0  0  0  0  0  0  0  0  0  0
    7.7562   11.7849   25.5087 C   0  0  0  0  0  0  0  0  0  0  0  0
    7.7535   10.4240   25.7012 C   0  0  0  0  0  0  0  0  0  0  0  0
    8.5704    9.5899   24.8960 C   0  0  0  0  0  0  0  0  0  0  0  0
    8.4003    8.2414   25.0823 N   0  0  0  0  0  0  0  0  0  0  0  0
    9.0263    7.4568   24.2686 C   0  0  0  0  0  0  0  0  0  0  0  0
    8.6145    5.7582   24.2602 Cl  0  0  0  0  0  0  0  0  0  0  0  0
   10.0288    7.8631   23.3457 C   0  0  0  0  0  0  0  0  0  0  0  0
   10.2578    9.2032   23.1882 C   0  0  0  0  0  0  0  0  0  0  0  0
    9.4625   10.1436   23.9271 C   0  0  0  0  0  0  0  0  0  0  0  0
   11.7258   13.6059   21.5146 C   0  0  2  0  0  0  0  0  0  0  0  0
   12.7963   14.4389   22.2243 C   0  0  0  0  0  0  0  0  0  0  0  0
   12.4222   15.8967   22.3729 C   0  0  0  0  0  0  0  0  0  0  0  0
   12.0498   16.4901   21.0290 C   0  0  0  0  0  0  0  0  0  0  0  0
   11.3229   15.6043   20.0832 C   0  0  0  0  0  0  0  0  0  0  0  0
   10.7913   15.8355   18.8498 C   0  0  0  0  0  0  0  0  0  0  0  0
   10.4818   14.6531   18.2297 N   0  0  0  0  0  0  0  0  0  0  0  0
   10.8388   13.7227   19.0777 C   0  0  0  0  0  0  0  0  0  0  0  0
   11.3642   14.2380   20.2319 N   0  0  0  0  0  0  0  0  0  0  0  0
  1  2  2  0
  2  3  1  0
  3  4  1  0
  4  5  2  0
  5  6  1  0
  6  7  2  0
  7  8  1  0
  8  9  2  0
  9 10  1  0
 10 11  1  0
 10 12  2  0
 12 13  1  0
 13 14  2  0
 15  2  1  1
 15 16  1  0
 16 17  1  0
 17 18  1  0
 18 19  1  0
 19 20  2  0
 20 21  1  0
 21 22  2  0
 22 23  1  0
 14  4  1  0
 23 15  1  0
 14  8  1  0
 23 19  1  0
M  END
>  <ref_pdb>  (235) 
x0554_0A

>  <ref_mols>  (235) 
x0554_0A,x0566_0A

>  <original SMILES>  (235) 
O=C(Nc1cccc2nc(Cl)ccc12)[C@@H]1CCCc2cncn21

>  <IC50 (nM)>  (235) 
1341.930426321659

>  <CNNaffinity>  (235) 
5.87227

>  <rationale>  (235) 
-1

$$$$
Z3584328919
     RDKit          3D

 23 26  0  0  0  0  0  0  0  0999 V2000
    8.7691   14.0295   21.9455 O   0  0  0  0  0  0  0  0  0  0  0  0
    9.8592   13.5306   22.1127 C   0  0  0  0  0  0  0  0  0  0  0  0
   10.0794   12.4056   22.8733 N   0  0  0  0  0  0  0  0  0  0  0  0
    9.2072   11.7022   23.7111 C   0  0  0  0  0  0  0  0  0  0  0  0
    8.2728   12.3489   24.4873 C   0  0  0  0  0  0  0  0  0  0  0  0
    7.5020   11.6255   25.4397 C   0  0  0  0  0  0  0  0  0  0  0  0
    7.6341   10.2589   25.5401 C   0  0  0  0  0  0  0  0  0  0  0  0
    8.5304    9.5648   24.6833 C   0  0  0  0  0  0  0  0  0  0  0  0
    8.4923    8.1963   24.7457 N   0  0  0  0  0  0  0  0  0  0  0  0
    9.2079    7.5394   23.8944 C   0  0  0  0  0  0  0  0  0  0  0  0
    8.8760    5.8291   23.7095 Cl  0  0  0  0  0  0  0  0  0  0  0  0
   10.2181    8.1157   23.0743 C   0  0  0  0  0  0  0  0  0  0  0  0
   10.3030    9.4842   23.0271 C   0  0  0  0  0  0  0  0  0  0  0  0
    9.3816   10.2772   23.7883 C   0  0  0  0  0  0  0  0  0  0  0  0
   11.2119   14.0657   21.5777 C   0  0  2  0  0  0  0  0  0  0  0  0
   11.8842   14.9831   22.6241 C   0  0  0  0  0  0  0  0  0  0  0  0
   13.3251   15.1500   22.1556 C   0  0  0  0  0  0  0  0  0  0  0  0
   13.4073   15.9625   20.8682 C   0  0  0  0  0  0  0  0  0  0  0  0
   12.4033   15.4962   19.8680 C   0  0  0  0  0  0  0  0  0  0  0  0
   12.3760   15.7229   18.5836 N   0  0  0  0  0  0  0  0  0  0  0  0
   11.2657   15.0836   18.0792 N   0  0  0  0  0  0  0  0  0  0  0  0
   10.6778   14.5030   19.0842 C   0  0  0  0  0  0  0  0  0  0  0  0
   11.3166   14.7457   20.2607 N   0  0  0  0  0  0  0  0  0  0  0  0
  1  2  2  0
  2  3  1  0
  3  4  1  0
  4  5  2  0
  5  6  1  0
  6  7  2  0
  7  8  1  0
  8  9  2  0
  9 10  1  0
 10 11  1  0
 10 12  2  0
 12 13  1  0
 13 14  2  0
 15  2  1  1
 15 16  1  0
 16 17  1  0
 17 18  1  0
 18 19  1  0
 19 20  2  0
 20 21  1  0
 21 22  2  0
 22 23  1  0
 14  4  1  0
 23 15  1  0
 14  8  1  0
 23 19  1  0
M  END
>  <ref_pdb>  (236) 
x0554_0A

>  <ref_mols>  (236) 
x0554_0A,x0566_0A

>  <original SMILES>  (236) 
O=C(Nc1cccc2nc(Cl)ccc12)[C@@H]1CCCc2nncn21

>  <IC50 (nM)>  (236) 
1343.4453361799115

>  <CNNaffinity>  (236) 
5.87178

>  <rationale>  (236) 
-1

$$$$
PV_002457264165
     RDKit          3D

 24 26  0  0  0  0  0  0  0  0999 V2000
   10.7546   14.8215   23.3985 O   0  0  0  0  0  0  0  0  0  0  0  0
   11.3014   13.9180   22.7924 C   0  0  0  0  0  0  0  0  0  0  0  0
   12.5775   14.1607   21.9326 C   0  0  0  0  0  0  0  0  0  0  0  0
   12.3578   14.5976   20.5421 N   0  0  0  0  0  0  0  0  0  0  0  0
   12.1853   16.0202   20.2894 C   0  0  0  0  0  0  0  0  0  0  0  0
   10.8660   16.6728   20.7459 C   0  0  0  0  0  0  0  0  0  0  0  0
    9.5558   15.9347   20.4515 C   0  0  0  0  0  0  0  0  0  0  0  0
    9.2236   15.6209   18.9865 C   0  0  0  0  0  0  0  0  0  0  0  0
   10.2584   14.8344   18.1827 C   0  0  0  0  0  0  0  0  0  0  0  0
   10.7203   13.5830   18.9379 C   0  0  0  0  0  0  0  0  0  0  0  0
   12.1072   13.6038   19.5542 C   0  0  0  0  0  0  0  0  0  0  0  0
   12.9104   12.7298   19.3259 O   0  0  0  0  0  0  0  0  0  0  0  0
   10.8520   12.6210   22.7836 N   0  0  0  0  0  0  0  0  0  0  0  0
    9.8842   12.0125   23.5988 C   0  0  0  0  0  0  0  0  0  0  0  0
    9.0169   12.7542   24.3735 C   0  0  0  0  0  0  0  0  0  0  0  0
    8.0338   12.1136   25.1768 C   0  0  0  0  0  0  0  0  0  0  0  0
    7.9227   10.7415   25.1736 C   0  0  0  0  0  0  0  0  0  0  0  0
    8.7981    9.9573   24.3755 C   0  0  0  0  0  0  0  0  0  0  0  0
    8.5822    8.6046   24.3972 N   0  0  0  0  0  0  0  0  0  0  0  0
    9.3588    7.8594   23.6815 C   0  0  0  0  0  0  0  0  0  0  0  0
    8.9430    6.1635   23.5498 Cl  0  0  0  0  0  0  0  0  0  0  0  0
   10.4982    8.3255   22.9680 C   0  0  0  0  0  0  0  0  0  0  0  0
   10.7192    9.6797   22.9181 C   0  0  0  0  0  0  0  0  0  0  0  0
    9.8274   10.5720   23.5991 C   0  0  0  0  0  0  0  0  0  0  0  0
  1  2  2  0
  2  3  1  0
  3  4  1  0
  4  5  1  0
  5  6  1  0
  6  7  1  0
  7  8  1  0
  8  9  1  0
  9 10  1  0
 10 11  1  0
 11 12  2  0
  2 13  1  0
 13 14  1  0
 14 15  2  0
 15 16  1  0
 16 17  2  0
 17 18  1  0
 18 19  2  0
 19 20  1  0
 20 21  1  0
 20 22  2  0
 22 23  1  0
 23 24  2  0
 11  4  1  0
 24 14  1  0
 24 18  1  0
M  END
>  <ref_pdb>  (237) 
x0554_0A

>  <ref_mols>  (237) 
x0554_0A,x0566_0A

>  <original SMILES>  (237) 
O=C(CN1CCCCCCC1=O)Nc1cccc2nc(Cl)ccc12

>  <IC50 (nM)>  (237) 
1343.8165951333897

>  <CNNaffinity>  (237) 
5.87166

>  <rationale>  (237) 
-1

$$$$
Z3143281216
     RDKit          3D

 22 25  0  0  0  0  0  0  0  0999 V2000
   10.1178   14.7551   23.0603 O   0  0  0  0  0  0  0  0  0  0  0  0
   10.9185   13.9080   22.7019 C   0  0  0  0  0  0  0  0  0  0  0  0
   10.8136   12.5796   23.0243 N   0  0  0  0  0  0  0  0  0  0  0  0
    9.8270   11.9325   23.7831 C   0  0  0  0  0  0  0  0  0  0  0  0
    8.9319   12.6433   24.5609 C   0  0  0  0  0  0  0  0  0  0  0  0
    7.9118   11.9800   25.2919 C   0  0  0  0  0  0  0  0  0  0  0  0
    7.8124   10.6106   25.2505 C   0  0  0  0  0  0  0  0  0  0  0  0
    8.7346    9.8537   24.4802 C   0  0  0  0  0  0  0  0  0  0  0  0
    8.5406    8.5000   24.4834 N   0  0  0  0  0  0  0  0  0  0  0  0
    9.3215    7.7751   23.7543 C   0  0  0  0  0  0  0  0  0  0  0  0
    8.9087    6.0824   23.5853 Cl  0  0  0  0  0  0  0  0  0  0  0  0
   10.4595    8.2645   23.0546 C   0  0  0  0  0  0  0  0  0  0  0  0
   10.6754    9.6206   23.0445 C   0  0  0  0  0  0  0  0  0  0  0  0
    9.7792   10.4921   23.7451 C   0  0  0  0  0  0  0  0  0  0  0  0
   12.1027   14.2336   21.8264 C   0  0  2  0  0  0  0  0  0  0  0  0
   12.5024   15.6702   21.7023 C   0  0  0  0  0  0  0  0  0  0  0  0
   11.8619   14.9862   20.4547 C   0  0  2  0  0  0  0  0  0  0  0  0
   10.3461   15.3173   20.1275 C   0  0  0  0  0  0  0  0  0  0  0  0
   10.0735   15.4949   18.6145 C   0  0  0  0  0  0  0  0  0  0  0  0
   11.3168   15.9273   17.8374 C   0  0  0  0  0  0  0  0  0  0  0  0
   12.3671   14.9124   18.0333 N   0  0  0  0  0  0  0  0  0  0  0  0
   12.6789   14.7226   19.3806 C   0  0  0  0  0  0  0  0  0  0  0  0
  1  2  2  0
  2  3  1  0
  3  4  1  0
  4  5  2  0
  5  6  1  0
  6  7  2  0
  7  8  1  0
  8  9  2  0
  9 10  1  0
 10 11  1  0
 10 12  2  0
 12 13  1  0
 13 14  2  0
 15  2  1  1
 15 16  1  0
 17 16  1  1
 17 18  1  0
 18 19  1  0
 19 20  1  0
 20 21  1  0
 21 22  1  0
 14  4  1  0
 17 15  1  0
 14  8  1  0
 22 17  1  0
M  END
>  <ref_pdb>  (238) 
x0554_0A

>  <ref_mols>  (238) 
x0554_0A,x0566_0A

>  <original SMILES>  (238) 
O=C(Nc1cccc2nc(Cl)ccc12)[C@@H]1C[C@]12CCCNC2

>  <IC50 (nM)>  (238) 
1348.528098418923

>  <CNNaffinity>  (238) 
5.87014

>  <rationale>  (238) 
-1

$$$$
Z4208658187
     RDKit          3D

 24 27  0  0  0  0  0  0  0  0999 V2000
   10.5598   14.7632   23.0147 O   0  0  0  0  0  0  0  0  0  0  0  0
   11.0126   13.8104   22.4083 C   0  0  0  0  0  0  0  0  0  0  0  0
   12.1880   13.9748   21.4796 C   0  0  0  0  0  0  0  0  0  0  0  0
   11.7915   14.7615   20.2386 C   0  0  1  0  0  0  0  0  0  0  0  0
   13.0347   15.2113   19.4575 C   0  0  0  0  0  0  0  0  0  0  0  0
   12.7360   15.9720   18.2449 N   0  0  0  0  0  0  0  0  0  0  0  0
   11.7553   15.2648   17.4389 C   0  0  0  0  0  0  0  0  0  0  0  0
   10.5687   14.6276   18.2121 C   0  0  0  0  0  0  0  0  0  0  0  0
    9.7430   13.7617   17.2413 C   0  0  0  0  0  0  0  0  0  0  0  0
    8.6121   14.8199   17.2854 C   0  0  0  0  0  0  0  0  0  0  0  0
    9.3475   15.5556   18.4286 C   0  0  0  0  0  0  0  0  0  0  0  0
   10.9748   13.9361   19.4004 O   0  0  0  0  0  0  0  0  0  0  0  0
   10.5304   12.5404   22.4887 N   0  0  0  0  0  0  0  0  0  0  0  0
    9.7158   11.9649   23.4680 C   0  0  0  0  0  0  0  0  0  0  0  0
    8.9236   12.7231   24.3043 C   0  0  0  0  0  0  0  0  0  0  0  0
    7.9951   12.0958   25.1775 C   0  0  0  0  0  0  0  0  0  0  0  0
    7.8843   10.7229   25.2013 C   0  0  0  0  0  0  0  0  0  0  0  0
    8.7346    9.9241   24.3883 C   0  0  0  0  0  0  0  0  0  0  0  0
    8.5393    8.5704   24.4471 N   0  0  0  0  0  0  0  0  0  0  0  0
    9.3102    7.8227   23.7254 C   0  0  0  0  0  0  0  0  0  0  0  0
    8.8988    6.1279   23.6112 Cl  0  0  0  0  0  0  0  0  0  0  0  0
   10.4392    8.2839   22.9909 C   0  0  0  0  0  0  0  0  0  0  0  0
   10.6352    9.6385   22.9028 C   0  0  0  0  0  0  0  0  0  0  0  0
    9.7195   10.5290   23.5554 C   0  0  0  0  0  0  0  0  0  0  0  0
  1  2  2  0
  2  3  1  0
  4  3  1  1
  4  5  1  0
  5  6  1  0
  6  7  1  0
  7  8  1  0
  8  9  1  0
  9 10  1  0
 10 11  1  0
  8 12  1  0
  2 13  1  0
 13 14  1  0
 14 15  2  0
 15 16  1  0
 16 17  2  0
 17 18  1  0
 18 19  2  0
 19 20  1  0
 20 21  1  0
 20 22  2  0
 22 23  1  0
 23 24  2  0
 12  4  1  0
 24 14  1  0
 11  8  1  0
 24 18  1  0
M  END
>  <ref_pdb>  (239) 
x0554_0A

>  <ref_mols>  (239) 
x0554_0A,x0566_0A

>  <original SMILES>  (239) 
O=C(C[C@H]1CNCC2(CCC2)O1)Nc1cccc2nc(Cl)ccc12

>  <IC50 (nM)>  (239) 
1348.745472985556

>  <CNNaffinity>  (239) 
5.87007

>  <rationale>  (239) 
-1

$$$$
Z3091962525
     RDKit          3D

 23 25  0  0  0  0  0  0  0  0999 V2000
   10.9172   14.6500   23.5178 O   0  0  0  0  0  0  0  0  0  0  0  0
   11.3225   13.8117   22.7307 C   0  0  0  0  0  0  0  0  0  0  0  0
   12.4751   14.1235   21.7914 C   0  0  0  0  0  0  0  0  0  0  0  0
   12.0887   14.9888   20.5680 C   0  0  2  0  0  0  0  0  0  0  0  0
   11.2791   16.2496   20.9768 C   0  0  0  0  0  0  0  0  0  0  0  0
   10.4385   16.9656   19.8829 C   0  0  0  0  0  0  0  0  0  0  0  0
   10.8646   16.6486   18.4504 C   0  0  0  0  0  0  0  0  0  0  0  0
   10.8234   14.9045   18.0641 S   0  0  0  0  0  6  0  0  0  0  0  0
   11.8534   14.6980   17.0551 O   0  0  0  0  0  0  0  0  0  0  0  0
    9.4338   14.5333   17.8224 O   0  0  0  0  0  0  0  0  0  0  0  0
   11.3279   14.1042   19.5796 C   0  0  0  0  0  0  0  0  0  0  0  0
   10.7804   12.5587   22.6457 N   0  0  0  0  0  0  0  0  0  0  0  0
    9.8565   11.9654   23.5232 C   0  0  0  0  0  0  0  0  0  0  0  0
    8.9981   12.7289   24.2873 C   0  0  0  0  0  0  0  0  0  0  0  0
    8.0161   12.1202   25.1108 C   0  0  0  0  0  0  0  0  0  0  0  0
    7.9032   10.7509   25.1570 C   0  0  0  0  0  0  0  0  0  0  0  0
    8.7773    9.9394   24.3850 C   0  0  0  0  0  0  0  0  0  0  0  0
    8.5498    8.5909   24.4448 N   0  0  0  0  0  0  0  0  0  0  0  0
    9.3028    7.8235   23.7273 C   0  0  0  0  0  0  0  0  0  0  0  0
    8.8563    6.1357   23.6210 Cl  0  0  0  0  0  0  0  0  0  0  0  0
   10.4385    8.2611   22.9900 C   0  0  0  0  0  0  0  0  0  0  0  0
   10.6823    9.6095   22.9154 C   0  0  0  0  0  0  0  0  0  0  0  0
    9.8036   10.5266   23.5803 C   0  0  0  0  0  0  0  0  0  0  0  0
  1  2  2  0
  2  3  1  0
  4  3  1  1
  4  5  1  0
  5  6  1  0
  6  7  1  0
  7  8  1  0
  8  9  2  0
  8 10  2  0
  8 11  1  0
  2 12  1  0
 12 13  1  0
 13 14  2  0
 14 15  1  0
 15 16  2  0
 16 17  1  0
 17 18  2  0
 18 19  1  0
 19 20  1  0
 19 21  2  0
 21 22  1  0
 22 23  2  0
 11  4  1  0
 23 13  1  0
 23 17  1  0
M  END
>  <ref_pdb>  (240) 
x0554_0A

>  <ref_mols>  (240) 
x0554_0A,x0566_0A

>  <original SMILES>  (240) 
O=C(C[C@@H]1CCCS(=O)(=O)C1)Nc1cccc2nc(Cl)ccc12

>  <IC50 (nM)>  (240) 
1350.734522992818

>  <CNNaffinity>  (240) 
5.86943

>  <rationale>  (240) 
-1

$$$$
