ver_1.2
     RDKit          3D

 14 15  0  0  0  0  0  0  0  0999 V2000
    2.8742    1.7939   -0.0225 C   0  0  0  0  0  0  0  0  0  0  0  0
    2.1431    0.5249   -0.0060 N   0  0  0  0  0  0  0  0  0  0  0  0
    2.6718   -0.7109    0.0108 C   0  0  0  0  0  0  0  0  0  0  0  0
    1.6896   -1.6292    0.0225 N   0  0  0  0  0  0  0  0  0  0  0  0
    0.4985   -1.0050    0.0136 C   0  0  0  0  0  0  0  0  0  0  0  0
    0.8120    0.3390   -0.0041 C   0  0  0  0  0  0  0  0  0  0  0  0
   -0.2141    1.2838   -0.0172 C   0  0  0  0  0  0  0  0  0  0  0  0
    0.0677    2.5110   -0.0334 O   0  0  0  0  0  0  0  0  0  0  0  0
   -1.4703    0.8087   -0.0115 N   0  0  0  0  0  0  0  0  0  0  0  0
   -1.7399   -0.5063    0.0059 C   0  0  0  0  0  0  0  0  0  0  0  0
   -2.9485   -0.8949    0.0105 O   0  0  0  0  0  0  0  0  0  0  0  0
   -0.7764   -1.4420    0.0188 N   0  0  0  0  0  0  0  0  0  0  0  0
   -1.0645   -2.8724    0.0378 C   0  0  0  0  0  0  0  0  0  0  0  0
   -2.5432    1.7995   -0.0252 C   0  0  0  0  0  0  0  0  0  0  0  0
  1  2  1  0
  2  3  1  0
  3  4  2  0
  4  5  1  0
  5  6  2  0
  6  7  1  0
  7  8  2  0
  7  9  1  0
  9 10  1  0
 10 11  2  0
 10 12  1  0
 12 13  1  0
  9 14  1  0
  6  2  1  0
 12  5  1  0
M  END
>  <ref_url>  (1) 
https://github.com/jthorton/EV-A71-2A-elaborations/tree/main/iteration1/Manual-Growth

>  <submitter_name>  (1) 
JTHorton/DJCole

>  <submitter_email>  (1) 
Josh.Horton@newcastle.ac.uk

>  <submitter_institution>  (1) 
Newcastle University (UK)

>  <generation_date>  (1) 
2023-11-24

>  <method>  (1) 
FEGrow-Elaborations

>  <IC50 (nM)>  (1) 
IC50 (nM)

>  <CNNaffinity>  (1) 
CNNaffinity

>  <rationale>  (1) 
rationale

$$$$
PV_002587416927
     RDKit          3D

 26 28  0  0  0  0  0  0  0  0999 V2000
    9.6070    9.2477   23.1975 C   0  0  0  0  0  0  0  0  0  0  0  0
    8.8789   10.4322   23.7831 C   0  0  0  0  0  0  0  0  0  0  0  0
    7.7616   10.2001   24.4644 N   0  0  0  0  0  0  0  0  0  0  0  0
    7.0691   11.2263   24.9735 C   0  0  0  0  0  0  0  0  0  0  0  0
    5.8480   10.9231   25.8088 C   0  0  0  0  0  0  0  0  0  0  0  0
    5.5730    9.6066   25.9490 N   0  0  0  0  0  0  0  0  0  0  0  0
    5.1966   11.8159   26.3248 O   0  0  0  0  0  0  0  0  0  0  0  0
    7.4372   12.5497   24.7989 C   0  0  0  0  0  0  0  0  0  0  0  0
    8.6253   12.8044   24.1380 C   0  0  0  0  0  0  0  0  0  0  0  0
    9.3695   11.7412   23.6410 C   0  0  0  0  0  0  0  0  0  0  0  0
   10.6265   11.9806   23.0241 N   0  0  0  0  0  0  0  0  0  0  0  0
   11.5762   12.7582   23.6484 C   0  0  0  0  0  0  0  0  0  0  0  0
   11.5291   13.0425   24.8286 O   0  0  0  0  0  0  0  0  0  0  0  0
   12.6731   13.2767   22.7174 C   0  0  0  0  0  0  0  0  0  0  0  0
   12.1393   14.3869   21.8568 C   0  0  0  0  0  0  0  0  0  0  0  0
   11.7941   15.6230   22.3121 C   0  0  0  0  0  0  0  0  0  0  0  0
   11.1787   16.5791   21.0280 S   0  0  0  0  0  0  0  0  0  0  0  0
   11.3827   15.2195   19.9575 C   0  0  0  0  0  0  0  0  0  0  0  0
   10.8863   15.2440   18.5695 C   0  0  0  0  0  0  0  0  0  0  0  0
   10.3570   14.0614   18.0551 C   0  0  0  0  0  0  0  0  0  0  0  0
    9.6609   14.0882   16.8609 C   0  0  0  0  0  0  0  0  0  0  0  0
    8.8963   12.6333   16.3172 Cl  0  0  0  0  0  0  0  0  0  0  0  0
    9.5505   15.2570   16.1194 C   0  0  0  0  0  0  0  0  0  0  0  0
   10.1836   16.4079   16.5775 C   0  0  0  0  0  0  0  0  0  0  0  0
   10.8508   16.4120   17.7999 C   0  0  0  0  0  0  0  0  0  0  0  0
   11.8625   14.1531   20.5319 N   0  0  0  0  0  0  0  0  0  0  0  0
  1  2  1  0
  2  3  2  0
  3  4  1  0
  4  5  1  0
  5  6  1  0
  5  7  2  0
  4  8  2  0
  8  9  1  0
  9 10  2  0
 10 11  1  0
 11 12  1  0
 12 13  2  0
 12 14  1  0
 14 15  1  0
 15 16  2  0
 16 17  1  0
 17 18  1  0
 18 19  1  0
 19 20  2  0
 20 21  1  0
 21 22  1  0
 21 23  2  0
 23 24  1  0
 24 25  2  0
 18 26  2  0
 10  2  1  0
 26 15  1  0
 25 19  1  0
M  END
>  <ref_pdb>  (1) 
x0554_0A

>  <ref_mols>  (1) 
x0310_0A,x0556_0A

>  <original SMILES>  (1) 
Cc1nc(C(N)=O)ccc1NC(=O)Cc1csc(-c2cccc(Cl)c2)n1

>  <IC50 (nM)>  (1) 
675.4761198668795

>  <CNNaffinity>  (1) 
6.17039

>  <rationale>  (1) 
-1

$$$$
PV_005785093884
     RDKit          3D

 27 29  0  0  0  0  0  0  0  0999 V2000
    9.7833    9.2955   23.2220 C   0  0  0  0  0  0  0  0  0  0  0  0
    8.9300   10.4104   23.7710 C   0  0  0  0  0  0  0  0  0  0  0  0
    7.8584   10.0401   24.4679 N   0  0  0  0  0  0  0  0  0  0  0  0
    7.0322   10.9758   24.9895 C   0  0  0  0  0  0  0  0  0  0  0  0
    5.7579   10.5331   25.7508 C   0  0  0  0  0  0  0  0  0  0  0  0
    5.3480   11.3691   26.7729 N   0  0  0  0  0  0  0  0  0  0  0  0
    5.0623    9.5697   25.5072 O   0  0  0  0  0  0  0  0  0  0  0  0
    7.3135   12.3446   24.8506 C   0  0  0  0  0  0  0  0  0  0  0  0
    8.4253   12.7557   24.1262 C   0  0  0  0  0  0  0  0  0  0  0  0
    9.2549   11.7879   23.5545 C   0  0  0  0  0  0  0  0  0  0  0  0
   10.3851   12.2032   22.7961 N   0  0  0  0  0  0  0  0  0  0  0  0
   10.5324   13.4120   22.1684 C   0  0  0  0  0  0  0  0  0  0  0  0
    9.6195   14.2227   22.0762 O   0  0  0  0  0  0  0  0  0  0  0  0
   11.9826   13.6622   21.5394 C   0  0  0  0  0  0  0  0  0  0  0  0
   12.8196   12.7677   21.5102 O   0  0  0  0  0  0  0  0  0  0  0  0
   12.2300   14.9058   21.0015 N   0  0  0  0  0  0  0  0  0  0  0  0
   11.6550   16.1697   21.4535 C   0  0  0  0  0  0  0  0  0  0  0  0
   10.6027   16.6534   20.4580 C   0  0  0  0  0  0  0  0  0  0  0  0
   11.0862   16.6782   18.9892 C   0  0  0  0  0  0  0  0  0  0  0  0
   12.1720   15.6314   18.5574 C   0  0  2  0  0  0  0  0  0  0  0  0
   11.6329   14.5416   17.7395 N   0  0  0  0  0  0  0  0  0  0  0  0
   11.0899   14.8246   16.4059 C   0  0  0  0  0  0  0  0  0  0  0  0
    9.7531   14.1321   16.7908 C   0  0  0  0  0  0  0  0  0  0  0  0
    9.4044   12.9232   15.9330 C   0  0  0  0  0  0  0  0  0  0  0  0
    8.5600   15.0693   16.8223 C   0  0  0  0  0  0  0  0  0  0  0  0
   10.3977   13.8669   18.1821 C   0  0  0  0  0  0  0  0  0  0  0  0
   12.9775   15.0192   19.7398 C   0  0  0  0  0  0  0  0  0  0  0  0
  1  2  1  0
  2  3  2  0
  3  4  1  0
  4  5  1  0
  5  6  1  0
  5  7  2  0
  4  8  2  0
  8  9  1  0
  9 10  2  0
 10 11  1  0
 11 12  1  0
 12 13  2  0
 12 14  1  0
 14 15  2  0
 14 16  1  0
 16 17  1  0
 17 18  1  0
 18 19  1  0
 19 20  1  0
 20 21  1  1
 21 22  1  0
 22 23  1  0
 23 24  1  0
 23 25  1  0
 23 26  1  0
 20 27  1  0
 10  2  1  0
 27 16  1  0
 26 21  1  0
M  END
>  <ref_pdb>  (2) 
x0554_0A

>  <ref_mols>  (2) 
x0310_0A,x0556_0A

>  <original SMILES>  (2) 
Cc1nc(C(N)=O)ccc1NC(=O)C(=O)N1CCC[C@H](N2CC(C)(C)C2)C1

>  <IC50 (nM)>  (2) 
748.5830685190319

>  <CNNaffinity>  (2) 
6.12576

>  <rationale>  (2) 
-1

$$$$
PV_006138336038
     RDKit          3D

 26 28  0  0  0  0  0  0  0  0999 V2000
    9.9451    9.4034   22.9641 C   0  0  0  0  0  0  0  0  0  0  0  0
    9.1557   10.4745   23.6692 C   0  0  0  0  0  0  0  0  0  0  0  0
    8.1417   10.0588   24.4110 N   0  0  0  0  0  0  0  0  0  0  0  0
    7.3719   10.9582   25.0256 C   0  0  0  0  0  0  0  0  0  0  0  0
    6.2369   10.4158   25.8527 C   0  0  0  0  0  0  0  0  0  0  0  0
    5.0987   11.1839   25.7645 N   0  0  0  0  0  0  0  0  0  0  0  0
    6.3304    9.4326   26.5561 O   0  0  0  0  0  0  0  0  0  0  0  0
    7.5943   12.3282   24.9415 C   0  0  0  0  0  0  0  0  0  0  0  0
    8.6597   12.7830   24.1862 C   0  0  0  0  0  0  0  0  0  0  0  0
    9.4601   11.8448   23.5449 C   0  0  0  0  0  0  0  0  0  0  0  0
   10.5722   12.2473   22.7777 N   0  0  0  0  0  0  0  0  0  0  0  0
   10.5983   13.3783   22.0320 C   0  0  0  0  0  0  0  0  0  0  0  0
    9.6453   14.1245   21.8711 O   0  0  0  0  0  0  0  0  0  0  0  0
   11.9898   13.6185   21.3972 C   0  0  0  0  0  0  0  0  0  0  0  0
   12.9164   12.8645   21.6512 O   0  0  0  0  0  0  0  0  0  0  0  0
   12.0940   14.7105   20.6075 N   0  0  0  0  0  0  0  0  0  0  0  0
   13.3156   15.0894   19.9070 C   0  0  0  0  0  0  0  0  0  0  0  0
   12.4695   15.6835   18.7840 C   0  0  0  0  0  0  0  0  0  0  0  0
   11.2142   15.3277   19.5827 C   0  0  2  0  0  0  0  0  0  0  0  0
   10.4388   16.5142   20.1703 C   0  0  0  0  0  0  0  0  0  0  0  0
    9.1193   16.7060   19.4392 C   0  0  0  0  0  0  0  0  0  0  0  0
    9.3221   16.5173   17.9249 C   0  0  0  0  0  0  0  0  0  0  0  0
    9.6745   15.0480   17.5685 C   0  0  0  0  0  0  0  0  0  0  0  0
    8.4446   14.2092   17.1918 C   0  0  0  0  0  0  0  0  0  0  0  0
   10.5855   15.0306   16.3292 C   0  0  0  0  0  0  0  0  0  0  0  0
   10.2907   14.3879   18.8249 C   0  0  0  0  0  0  0  0  0  0  0  0
  1  2  1  0
  2  3  2  0
  3  4  1  0
  4  5  1  0
  5  6  1  0
  5  7  2  0
  4  8  2  0
  8  9  1  0
  9 10  2  0
 10 11  1  0
 11 12  1  0
 12 13  2  0
 12 14  1  0
 14 15  2  0
 14 16  1  0
 16 17  1  0
 17 18  1  0
 19 18  1  6
 19 20  1  0
 20 21  1  0
 21 22  1  0
 22 23  1  0
 23 24  1  0
 23 25  1  0
 23 26  1  0
 10  2  1  0
 19 16  1  0
 26 19  1  0
M  END
>  <ref_pdb>  (3) 
x0554_0A

>  <ref_mols>  (3) 
x0310_0A,x0556_0A

>  <original SMILES>  (3) 
Cc1nc(C(N)=O)ccc1NC(=O)C(=O)N1CC[C@]12CCCC(C)(C)C2

>  <IC50 (nM)>  (3) 
773.3213492404047

>  <CNNaffinity>  (3) 
6.11164

>  <rationale>  (3) 
-1

$$$$
PV_005380951770
     RDKit          3D

 26 28  0  0  0  0  0  0  0  0999 V2000
    9.8526    9.2510   23.0481 C   0  0  0  0  0  0  0  0  0  0  0  0
    9.0804   10.3795   23.6851 C   0  0  0  0  0  0  0  0  0  0  0  0
    8.0500   10.0232   24.4351 N   0  0  0  0  0  0  0  0  0  0  0  0
    7.3158   10.9598   25.0389 C   0  0  0  0  0  0  0  0  0  0  0  0
    6.1585   10.4722   25.8677 C   0  0  0  0  0  0  0  0  0  0  0  0
    5.0520   11.2855   25.7808 N   0  0  0  0  0  0  0  0  0  0  0  0
    6.2057    9.4919   26.5798 O   0  0  0  0  0  0  0  0  0  0  0  0
    7.6110   12.3161   24.9635 C   0  0  0  0  0  0  0  0  0  0  0  0
    8.6868   12.7060   24.1907 C   0  0  0  0  0  0  0  0  0  0  0  0
    9.4260   11.7384   23.5194 C   0  0  0  0  0  0  0  0  0  0  0  0
   10.5283   12.1168   22.7237 N   0  0  0  0  0  0  0  0  0  0  0  0
   10.5345   13.2565   21.9444 C   0  0  0  0  0  0  0  0  0  0  0  0
    9.5123   13.8835   21.7350 O   0  0  0  0  0  0  0  0  0  0  0  0
   11.9067   13.7042   21.4317 C   0  0  2  0  0  0  0  0  0  0  0  0
   12.4003   14.8828   22.2988 C   0  0  0  0  0  0  0  0  0  0  0  0
   11.4300   16.0764   22.2417 C   0  0  0  0  0  0  0  0  0  0  0  0
   11.0169   16.3150   20.8234 C   0  0  0  0  0  0  0  0  0  0  0  0
   11.2447   15.4525   19.7742 C   0  0  0  0  0  0  0  0  0  0  0  0
   11.8836   14.0977   19.9408 C   0  0  0  0  0  0  0  0  0  0  0  0
   10.6291   16.0814   18.6724 C   0  0  0  0  0  0  0  0  0  0  0  0
   10.5327   15.5458   17.2760 C   0  0  0  0  0  0  0  0  0  0  0  0
   10.2363   16.4962   16.3907 F   0  0  0  0  0  0  0  0  0  0  0  0
    9.5866   14.5890   17.1862 F   0  0  0  0  0  0  0  0  0  0  0  0
   11.7047   14.9836   16.9166 F   0  0  0  0  0  0  0  0  0  0  0  0
   10.0447   17.2186   19.0032 N   0  0  0  0  0  0  0  0  0  0  0  0
   10.2981   17.3506   20.3101 N   0  0  0  0  0  0  0  0  0  0  0  0
  1  2  1  0
  2  3  2  0
  3  4  1  0
  4  5  1  0
  5  6  1  0
  5  7  2  0
  4  8  2  0
  8  9  1  0
  9 10  2  0
 10 11  1  0
 11 12  1  0
 12 13  2  0
 14 12  1  1
 14 15  1  0
 15 16  1  0
 16 17  1  0
 17 18  2  0
 18 19  1  0
 18 20  1  0
 20 21  1  0
 21 22  1  0
 21 23  1  0
 21 24  1  0
 20 25  2  0
 25 26  1  0
 10  2  1  0
 19 14  1  0
 26 17  1  0
M  END
>  <ref_pdb>  (4) 
x0554_0A

>  <ref_mols>  (4) 
x0310_0A,x0556_0A

>  <original SMILES>  (4) 
Cc1nc(C(N)=O)ccc1NC(=O)[C@@H]1CCc2[nH]nc(C(F)(F)F)c2C1

>  <IC50 (nM)>  (4) 
813.1862001343575

>  <CNNaffinity>  (4) 
6.08981

>  <rationale>  (4) 
-1

$$$$
PV_006953592007
     RDKit          3D

 26 27  0  0  0  0  0  0  0  0999 V2000
    9.6679    9.1924   23.1779 C   0  0  0  0  0  0  0  0  0  0  0  0
    8.9523   10.3900   23.7479 C   0  0  0  0  0  0  0  0  0  0  0  0
    7.8605   10.1635   24.4630 N   0  0  0  0  0  0  0  0  0  0  0  0
    7.2063   11.1973   25.0070 C   0  0  0  0  0  0  0  0  0  0  0  0
    5.9824   10.9062   25.8391 C   0  0  0  0  0  0  0  0  0  0  0  0
    5.7541    9.5880   26.0454 N   0  0  0  0  0  0  0  0  0  0  0  0
    5.2967   11.8016   26.3047 O   0  0  0  0  0  0  0  0  0  0  0  0
    7.6249   12.5078   24.8715 C   0  0  0  0  0  0  0  0  0  0  0  0
    8.7635   12.7701   24.1270 C   0  0  0  0  0  0  0  0  0  0  0  0
    9.4294   11.7002   23.5427 C   0  0  0  0  0  0  0  0  0  0  0  0
   10.5962   11.9076   22.7733 N   0  0  0  0  0  0  0  0  0  0  0  0
   10.8178   13.0571   22.0579 C   0  0  0  0  0  0  0  0  0  0  0  0
    9.9101   13.8169   21.7581 O   0  0  0  0  0  0  0  0  0  0  0  0
   12.2539   13.4075   21.6738 C   0  0  1  0  0  0  0  0  0  0  0  0
   12.1981   13.8432   20.2899 N   0  0  0  0  0  0  0  0  0  0  0  0
   12.7749   14.4634   22.6877 C   0  0  0  0  0  0  0  0  0  0  0  0
   12.8937   13.9226   24.0976 C   0  0  0  0  0  0  0  0  0  0  0  0
   13.9201   13.0388   24.4372 C   0  0  0  0  0  0  0  0  0  0  0  0
   14.0080   12.4968   25.7041 C   0  0  0  0  0  0  0  0  0  0  0  0
   14.9984   11.6517   26.0238 F   0  0  0  0  0  0  0  0  0  0  0  0
   13.0713   12.8116   26.6751 C   0  0  0  0  0  0  0  0  0  0  0  0
   13.1610   12.2800   27.8932 F   0  0  0  0  0  0  0  0  0  0  0  0
   12.0463   13.6888   26.3663 C   0  0  0  0  0  0  0  0  0  0  0  0
   11.1297   14.0032   27.2885 F   0  0  0  0  0  0  0  0  0  0  0  0
   11.9737   14.2327   25.0909 C   0  0  0  0  0  0  0  0  0  0  0  0
   10.9637   15.0902   24.8453 F   0  0  0  0  0  0  0  0  0  0  0  0
  1  2  1  0
  2  3  2  0
  3  4  1  0
  4  5  1  0
  5  6  1  0
  5  7  2  0
  4  8  2  0
  8  9  1  0
  9 10  2  0
 10 11  1  0
 11 12  1  0
 12 13  2  0
 12 14  1  0
 14 15  1  6
 14 16  1  0
 16 17  1  0
 17 18  2  0
 18 19  1  0
 19 20  1  0
 19 21  2  0
 21 22  1  0
 21 23  1  0
 23 24  1  0
 23 25  2  0
 25 26  1  0
 10  2  1  0
 25 17  1  0
M  END
>  <ref_pdb>  (5) 
x0554_0A

>  <ref_mols>  (5) 
x0310_0A,x0556_0A

>  <original SMILES>  (5) 
Cc1nc(C(N)=O)ccc1NC(=O)[C@@H](N)Cc1cc(F)c(F)c(F)c1F

>  <IC50 (nM)>  (5) 
814.816847352635

>  <CNNaffinity>  (5) 
6.08894

>  <rationale>  (5) 
-1

$$$$
PV_002339738638
     RDKit          3D

 27 29  0  0  0  0  0  0  0  0999 V2000
    9.0437   17.9967   16.1211 C   0  0  0  0  0  0  0  0  0  0  0  0
    9.6924   16.8356   15.6456 O   0  0  0  0  0  0  0  0  0  0  0  0
    9.8761   15.8336   16.5530 C   0  0  0  0  0  0  0  0  0  0  0  0
    9.6598   14.5374   16.0838 C   0  0  0  0  0  0  0  0  0  0  0  0
    9.8525   13.4499   16.9096 C   0  0  0  0  0  0  0  0  0  0  0  0
   10.3384   13.6443   18.1860 C   0  0  0  0  0  0  0  0  0  0  0  0
   10.5645   14.9259   18.6595 C   0  0  0  0  0  0  0  0  0  0  0  0
   11.1604   14.9953   19.9898 C   0  0  0  0  0  0  0  0  0  0  0  0
   11.5810   13.9306   20.6193 N   0  0  0  0  0  0  0  0  0  0  0  0
   12.2043   14.2628   21.7948 C   0  0  0  0  0  0  0  0  0  0  0  0
   12.7067   13.1768   22.7102 C   0  0  0  0  0  0  0  0  0  0  0  0
   11.6149   12.6469   23.6451 C   0  0  0  0  0  0  0  0  0  0  0  0
   11.6256   12.8524   24.8411 O   0  0  0  0  0  0  0  0  0  0  0  0
   10.6282   11.9145   23.0214 N   0  0  0  0  0  0  0  0  0  0  0  0
    9.3855   11.6945   23.6742 C   0  0  0  0  0  0  0  0  0  0  0  0
    8.6489   12.7682   24.1593 C   0  0  0  0  0  0  0  0  0  0  0  0
    7.4603   12.5262   24.8283 C   0  0  0  0  0  0  0  0  0  0  0  0
    7.0813   11.2045   25.0099 C   0  0  0  0  0  0  0  0  0  0  0  0
    5.8503   10.8996   25.8277 C   0  0  0  0  0  0  0  0  0  0  0  0
    5.5835    9.5844   25.9931 N   0  0  0  0  0  0  0  0  0  0  0  0
    5.1737   11.7917   26.3149 O   0  0  0  0  0  0  0  0  0  0  0  0
    7.7720   10.1707   24.5182 N   0  0  0  0  0  0  0  0  0  0  0  0
    8.8866   10.3931   23.8320 C   0  0  0  0  0  0  0  0  0  0  0  0
    9.5976    9.1975   23.2638 C   0  0  0  0  0  0  0  0  0  0  0  0
   12.2420   15.5981   22.0471 C   0  0  0  0  0  0  0  0  0  0  0  0
   11.3998   16.4780   20.8391 S   0  0  0  0  0  0  0  0  0  0  0  0
   10.2802   16.0439   17.8674 C   0  0  0  0  0  0  0  0  0  0  0  0
  1  2  1  0
  2  3  1  0
  3  4  2  0
  4  5  1  0
  5  6  2  0
  6  7  1  0
  7  8  1  0
  8  9  2  0
  9 10  1  0
 10 11  1  0
 11 12  1  0
 12 13  2  0
 12 14  1  0
 14 15  1  0
 15 16  2  0
 16 17  1  0
 17 18  2  0
 18 19  1  0
 19 20  1  0
 19 21  2  0
 18 22  1  0
 22 23  2  0
 23 24  1  0
 10 25  2  0
 25 26  1  0
  7 27  2  0
 27  3  1  0
 26  8  1  0
 23 15  1  0
M  END
>  <ref_pdb>  (6) 
x0554_0A

>  <ref_mols>  (6) 
x0310_0A,x0556_0A

>  <original SMILES>  (6) 
COc1cccc(-c2nc(CC(=O)Nc3ccc(C(N)=O)nc3C)cs2)c1

>  <IC50 (nM)>  (6) 
834.4109601532712

>  <CNNaffinity>  (6) 
6.07862

>  <rationale>  (6) 
-1

$$$$
PV_005434828557
     RDKit          3D

 26 28  0  0  0  0  0  0  0  0999 V2000
    9.8600    9.3638   23.0746 C   0  0  0  0  0  0  0  0  0  0  0  0
    9.0752   10.4053   23.8337 C   0  0  0  0  0  0  0  0  0  0  0  0
    8.0334    9.9486   24.5140 N   0  0  0  0  0  0  0  0  0  0  0  0
    7.2691   10.8061   25.1923 C   0  0  0  0  0  0  0  0  0  0  0  0
    6.0757   10.2290   25.9036 C   0  0  0  0  0  0  0  0  0  0  0  0
    4.9262   10.9566   25.7198 N   0  0  0  0  0  0  0  0  0  0  0  0
    6.1354    9.2454   26.6092 O   0  0  0  0  0  0  0  0  0  0  0  0
    7.5559   12.1606   25.2805 C   0  0  0  0  0  0  0  0  0  0  0  0
    8.6471   12.6572   24.5924 C   0  0  0  0  0  0  0  0  0  0  0  0
    9.4107   11.7798   23.8270 C   0  0  0  0  0  0  0  0  0  0  0  0
   10.5041   12.2457   23.0601 N   0  0  0  0  0  0  0  0  0  0  0  0
   10.7156   13.5343   22.6762 C   0  0  0  0  0  0  0  0  0  0  0  0
   10.0174   14.4874   22.9762 O   0  0  0  0  0  0  0  0  0  0  0  0
   11.9416   13.6626   21.7293 C   0  0  0  0  0  0  0  0  0  0  0  0
   12.7148   12.7195   21.6139 O   0  0  0  0  0  0  0  0  0  0  0  0
   12.0377   14.8169   21.0278 N   0  0  0  0  0  0  0  0  0  0  0  0
   11.6314   16.1404   21.4930 C   0  0  0  0  0  0  0  0  0  0  0  0
   10.4186   16.6070   20.7441 C   0  0  0  0  0  0  0  0  0  0  0  0
   11.2365   16.5857   18.9791 C   0  0  2  0  0  0  0  0  0  0  0  0
   10.6990   17.5561   18.0149 C   0  0  0  0  0  0  0  0  0  0  0  0
    9.5901   17.0297   17.0930 C   0  0  0  0  0  0  0  0  0  0  0  0
   10.0214   15.8504   16.2208 C   0  0  0  0  0  0  0  0  0  0  0  0
   10.0918   14.4561   16.8735 C   0  0  0  0  0  0  0  0  0  0  0  0
   10.6688   14.3513   18.2975 C   0  0  0  0  0  0  0  0  0  0  0  0
   11.8305   15.3005   18.5917 C   0  0  2  0  0  0  0  0  0  0  0  0
   12.7258   14.8108   19.7387 C   0  0  0  0  0  0  0  0  0  0  0  0
  1  2  1  0
  2  3  2  0
  3  4  1  0
  4  5  1  0
  5  6  1  0
  5  7  2  0
  4  8  2  0
  8  9  1  0
  9 10  2  0
 10 11  1  0
 11 12  1  0
 12 13  2  0
 12 14  1  0
 14 15  2  0
 14 16  1  0
 16 17  1  0
 17 18  1  0
 19 18  1  1
 19 20  1  0
 20 21  1  0
 21 22  1  0
 22 23  1  0
 23 24  1  0
 25 24  1  1
 25 26  1  0
 10  2  1  0
 26 16  1  0
 25 19  1  0
M  END
>  <ref_pdb>  (7) 
x0554_0A

>  <ref_mols>  (7) 
x0310_0A,x0556_0A

>  <original SMILES>  (7) 
Cc1nc(C(N)=O)ccc1NC(=O)C(=O)N1CC[C@@H]2CCCCC[C@@H]2C1

>  <IC50 (nM)>  (7) 
835.7762004099392

>  <CNNaffinity>  (7) 
6.07791

>  <rationale>  (7) 
-1

$$$$
PV_005174136580
     RDKit          3D

 27 29  0  0  0  0  0  0  0  0999 V2000
    9.7662    9.2042   23.2234 C   0  0  0  0  0  0  0  0  0  0  0  0
    8.9645   10.3317   23.8182 C   0  0  0  0  0  0  0  0  0  0  0  0
    7.8615    9.9841   24.4770 N   0  0  0  0  0  0  0  0  0  0  0  0
    7.0738   10.9312   25.0373 C   0  0  0  0  0  0  0  0  0  0  0  0
    5.7573   10.5240   25.7517 C   0  0  0  0  0  0  0  0  0  0  0  0
    5.2987   11.3977   26.7244 N   0  0  0  0  0  0  0  0  0  0  0  0
    5.0540    9.5653   25.5081 O   0  0  0  0  0  0  0  0  0  0  0  0
    7.4347   12.2875   24.9823 C   0  0  0  0  0  0  0  0  0  0  0  0
    8.5846   12.6747   24.3052 C   0  0  0  0  0  0  0  0  0  0  0  0
    9.3551   11.6981   23.6759 C   0  0  0  0  0  0  0  0  0  0  0  0
   10.4936   12.1129   22.9203 N   0  0  0  0  0  0  0  0  0  0  0  0
   10.5790   13.2442   22.1746 C   0  0  0  0  0  0  0  0  0  0  0  0
    9.6207   14.0121   22.0236 O   0  0  0  0  0  0  0  0  0  0  0  0
   12.0023   13.4914   21.4652 C   0  0  0  0  0  0  0  0  0  0  0  0
   12.8877   12.6492   21.5354 O   0  0  0  0  0  0  0  0  0  0  0  0
   12.1389   14.6551   20.7326 N   0  0  0  0  0  0  0  0  0  0  0  0
   11.5885   15.9482   21.1622 C   0  0  0  0  0  0  0  0  0  0  0  0
   10.4121   16.5444   20.3268 C   0  0  0  0  0  0  0  0  0  0  0  0
    9.9326   15.7397   19.2622 O   0  0  0  0  0  0  0  0  0  0  0  0
   10.7961   15.4840   18.1153 C   0  0  0  0  0  0  0  0  0  0  0  0
   10.4997   16.5645   17.0338 C   0  0  0  0  0  0  0  0  0  0  0  0
    9.0719   16.5262   16.5145 C   0  0  0  0  0  0  0  0  0  0  0  0
    8.6021   14.9192   15.8138 S   0  0  0  0  0  0  0  0  0  0  0  0
    9.9249   13.7715   16.4567 C   0  0  0  0  0  0  0  0  0  0  0  0
   10.4181   14.0994   17.7411 C   0  0  0  0  0  0  0  0  0  0  0  0
   12.3081   15.5626   18.4254 C   0  0  0  0  0  0  0  0  0  0  0  0
   12.8330   14.5711   19.4441 C   0  0  0  0  0  0  0  0  0  0  0  0
  1  2  1  0
  2  3  2  0
  3  4  1  0
  4  5  1  0
  5  6  1  0
  5  7  2  0
  4  8  2  0
  8  9  1  0
  9 10  2  0
 10 11  1  0
 11 12  1  0
 12 13  2  0
 12 14  1  0
 14 15  2  0
 14 16  1  0
 16 17  1  0
 17 18  1  0
 18 19  1  0
 19 20  1  0
 20 21  1  0
 21 22  1  0
 22 23  1  0
 23 24  1  0
 24 25  1  0
 20 26  1  0
 26 27  1  0
 10  2  1  0
 27 16  1  0
 25 20  1  0
M  END
>  <ref_pdb>  (8) 
x0554_0A

>  <ref_mols>  (8) 
x0310_0A,x0556_0A

>  <original SMILES>  (8) 
Cc1nc(C(N)=O)ccc1NC(=O)C(=O)N1CCOC2(CCSCC2)CC1

>  <IC50 (nM)>  (8) 
837.0087536905927

>  <CNNaffinity>  (8) 
6.07727

>  <rationale>  (8) 
-1

$$$$
Z2963611444
     RDKit          3D

 27 29  0  0  0  0  0  0  0  0999 V2000
    9.7031    9.2547   23.2493 C   0  0  0  0  0  0  0  0  0  0  0  0
    8.9041   10.4154   23.7925 C   0  0  0  0  0  0  0  0  0  0  0  0
    7.8237   10.1086   24.4914 N   0  0  0  0  0  0  0  0  0  0  0  0
    7.0579   11.0812   24.9924 C   0  0  0  0  0  0  0  0  0  0  0  0
    5.8274   10.6603   25.7564 C   0  0  0  0  0  0  0  0  0  0  0  0
    5.4777   11.5381   26.7530 N   0  0  0  0  0  0  0  0  0  0  0  0
    5.1730    9.6674   25.5098 O   0  0  0  0  0  0  0  0  0  0  0  0
    7.3492   12.4275   24.8062 C   0  0  0  0  0  0  0  0  0  0  0  0
    8.4532   12.7706   24.0529 C   0  0  0  0  0  0  0  0  0  0  0  0
    9.2568   11.7591   23.5405 C   0  0  0  0  0  0  0  0  0  0  0  0
   10.4158   12.0690   22.8001 N   0  0  0  0  0  0  0  0  0  0  0  0
   10.5159   13.1627   21.9671 C   0  0  0  0  0  0  0  0  0  0  0  0
    9.5360   13.8062   21.6340 O   0  0  0  0  0  0  0  0  0  0  0  0
   11.9419   13.5388   21.5620 C   0  0  2  0  0  0  0  0  0  0  0  0
   12.4594   14.6430   22.4998 C   0  0  0  0  0  0  0  0  0  0  0  0
   11.6414   15.9053   22.2584 C   0  0  0  0  0  0  0  0  0  0  0  0
   11.8319   16.3179   20.8111 C   0  0  0  0  0  0  0  0  0  0  0  0
   11.3693   15.2970   19.9027 N   0  0  0  0  0  0  0  0  0  0  0  0
   11.4273   15.7103   18.5120 C   0  0  0  0  0  0  0  0  0  0  0  0
   10.3765   14.9988   17.6983 C   0  0  0  0  0  0  0  0  0  0  0  0
    9.0493   15.0663   18.1124 C   0  0  0  0  0  0  0  0  0  0  0  0
    8.0653   14.3593   17.4321 C   0  0  0  0  0  0  0  0  0  0  0  0
    8.4076   13.5181   16.3771 C   0  0  0  0  0  0  0  0  0  0  0  0
    9.7325   13.4757   15.9779 C   0  0  0  0  0  0  0  0  0  0  0  0
   10.1052   12.6551   14.9806 F   0  0  0  0  0  0  0  0  0  0  0  0
   10.7166   14.2255   16.5985 C   0  0  0  0  0  0  0  0  0  0  0  0
   12.0230   14.0137   20.1067 C   0  0  0  0  0  0  0  0  0  0  0  0
  1  2  1  0
  2  3  2  0
  3  4  1  0
  4  5  1  0
  5  6  1  0
  5  7  2  0
  4  8  2  0
  8  9  1  0
  9 10  2  0
 10 11  1  0
 11 12  1  0
 12 13  2  0
 14 12  1  1
 14 15  1  0
 15 16  1  0
 16 17  1  0
 17 18  1  0
 18 19  1  0
 19 20  1  0
 20 21  2  0
 21 22  1  0
 22 23  2  0
 23 24  1  0
 24 25  1  0
 24 26  2  0
 18 27  1  0
 10  2  1  0
 27 14  1  0
 26 20  1  0
M  END
>  <ref_pdb>  (9) 
x0554_0A

>  <ref_mols>  (9) 
x0310_0A,x0556_0A

>  <original SMILES>  (9) 
Cc1nc(C(N)=O)ccc1NC(=O)[C@@H]1CCCN(Cc2cccc(F)c2)C1

>  <IC50 (nM)>  (9) 
845.5124366068502

>  <CNNaffinity>  (9) 
6.07288

>  <rationale>  (9) 
-1

$$$$
PV_005860342613
     RDKit          3D

 26 28  0  0  0  0  0  0  0  0999 V2000
    9.5904    9.5307   22.9764 C   0  0  0  0  0  0  0  0  0  0  0  0
    8.7972   10.6151   23.6577 C   0  0  0  0  0  0  0  0  0  0  0  0
    7.7553   10.2160   24.3632 N   0  0  0  0  0  0  0  0  0  0  0  0
    6.9547   11.1190   24.9302 C   0  0  0  0  0  0  0  0  0  0  0  0
    5.8824   10.5465   25.8143 C   0  0  0  0  0  0  0  0  0  0  0  0
    4.7646   11.3442   25.9111 N   0  0  0  0  0  0  0  0  0  0  0  0
    6.0162    9.5054   26.4206 O   0  0  0  0  0  0  0  0  0  0  0  0
    7.1141   12.4923   24.7562 C   0  0  0  0  0  0  0  0  0  0  0  0
    8.2239   12.9277   24.0551 C   0  0  0  0  0  0  0  0  0  0  0  0
    9.1192   11.9808   23.5770 C   0  0  0  0  0  0  0  0  0  0  0  0
   10.3857   12.3819   23.0803 N   0  0  0  0  0  0  0  0  0  0  0  0
   10.5298   13.4068   22.1355 C   0  0  0  0  0  0  0  0  0  0  0  0
    9.6501   13.8294   21.4172 O   0  0  0  0  0  0  0  0  0  0  0  0
   11.8291   13.8213   22.2197 N   0  0  0  0  0  0  0  0  0  0  0  0
   12.6479   12.9915   23.0870 C   0  0  1  0  0  0  0  0  0  0  0  0
   13.5336   13.7976   24.0469 C   0  0  0  0  0  0  0  0  0  0  0  0
   14.3178   12.9427   25.0215 C   0  0  0  0  0  0  0  0  0  0  0  0
   14.0156   12.9746   26.3842 C   0  0  0  0  0  0  0  0  0  0  0  0
   14.7133   12.1636   27.2715 C   0  0  0  0  0  0  0  0  0  0  0  0
   14.3016   12.1877   28.9627 Cl  0  0  0  0  0  0  0  0  0  0  0  0
   15.7104   11.3023   26.8382 C   0  0  0  0  0  0  0  0  0  0  0  0
   15.9645   11.2401   25.4755 C   0  0  0  0  0  0  0  0  0  0  0  0
   17.1125   10.0653   24.9073 Cl  0  0  0  0  0  0  0  0  0  0  0  0
   15.2951   12.0556   24.5700 C   0  0  0  0  0  0  0  0  0  0  0  0
   11.5656   12.1715   23.7958 C   0  0  0  0  0  0  0  0  0  0  0  0
   11.6509   11.4883   24.7871 O   0  0  0  0  0  0  0  0  0  0  0  0
  1  2  1  0
  2  3  2  0
  3  4  1  0
  4  5  1  0
  5  6  1  0
  5  7  2  0
  4  8  2  0
  8  9  1  0
  9 10  2  0
 10 11  1  0
 11 12  1  0
 12 13  2  0
 12 14  1  0
 14 15  1  0
 15 16  1  1
 16 17  1  0
 17 18  2  0
 18 19  1  0
 19 20  1  0
 19 21  2  0
 21 22  1  0
 22 23  1  0
 22 24  2  0
 15 25  1  0
 25 26  2  0
 10  2  1  0
 25 11  1  0
 24 17  1  0
M  END
>  <ref_pdb>  (10) 
x0554_0A

>  <ref_mols>  (10) 
x0310_0A,x0556_0A

>  <original SMILES>  (10) 
Cc1nc(C(N)=O)ccc1N1C(=O)N[C@@H](Cc2cc(Cl)cc(Cl)c2)C1=O

>  <IC50 (nM)>  (10) 
867.2413962979676

>  <CNNaffinity>  (10) 
6.06186

>  <rationale>  (10) 
-1

$$$$
PV_005098896000
     RDKit          3D

 27 28  0  0  0  0  0  0  0  0999 V2000
    9.8942    9.1835   23.1808 C   0  0  0  0  0  0  0  0  0  0  0  0
    9.1327   10.2435   23.9371 C   0  0  0  0  0  0  0  0  0  0  0  0
    8.0337    9.8286   24.5643 N   0  0  0  0  0  0  0  0  0  0  0  0
    7.2902   10.7080   25.2751 C   0  0  0  0  0  0  0  0  0  0  0  0
    5.9860   10.2263   25.9455 C   0  0  0  0  0  0  0  0  0  0  0  0
    4.8777   11.0457   25.8068 N   0  0  0  0  0  0  0  0  0  0  0  0
    5.8800    9.2427   26.6440 O   0  0  0  0  0  0  0  0  0  0  0  0
    7.6885   12.0431   25.4266 C   0  0  0  0  0  0  0  0  0  0  0  0
    8.8245   12.5020   24.7676 C   0  0  0  0  0  0  0  0  0  0  0  0
    9.5523   11.6159   23.9679 C   0  0  0  0  0  0  0  0  0  0  0  0
   10.6655   12.0984   23.2162 N   0  0  0  0  0  0  0  0  0  0  0  0
   10.8960   13.3922   22.8133 C   0  0  0  0  0  0  0  0  0  0  0  0
   10.2051   14.3359   23.1692 O   0  0  0  0  0  0  0  0  0  0  0  0
   12.1313   13.5488   21.8014 C   0  0  0  0  0  0  0  0  0  0  0  0
   12.8980   12.6096   21.6134 O   0  0  0  0  0  0  0  0  0  0  0  0
   12.2568   14.7441   21.1348 N   0  0  0  0  0  0  0  0  0  0  0  0
   11.7886   16.0473   21.6102 C   0  0  0  0  0  0  0  0  0  0  0  0
   10.5683   16.4722   20.8046 C   0  0  0  0  0  0  0  0  0  0  0  0
   10.8852   16.5758   19.3042 C   0  0  0  0  0  0  0  0  0  0  0  0
   11.9385   15.4987   18.7259 C   0  0  2  0  0  0  0  0  0  0  0  0
   11.2653   14.5287   17.9241 C   0  0  0  0  0  0  0  0  0  0  0  0
   10.7245   14.7530   16.7020 N   0  0  0  0  0  0  0  0  0  0  0  0
   11.1216   15.8771   15.8402 C   0  0  0  0  0  0  0  0  0  0  0  0
    9.3525   14.2116   16.4904 C   0  0  0  0  0  0  0  0  0  0  0  0
    9.3071   12.6923   16.5615 C   0  0  0  0  0  0  0  0  0  0  0  0
    8.3706   14.8244   17.4964 C   0  0  0  0  0  0  0  0  0  0  0  0
   12.8688   14.8187   19.8092 C   0  0  0  0  0  0  0  0  0  0  0  0
  1  2  1  0
  2  3  2  0
  3  4  1  0
  4  5  1  0
  5  6  1  0
  5  7  2  0
  4  8  2  0
  8  9  1  0
  9 10  2  0
 10 11  1  0
 11 12  1  0
 12 13  2  0
 12 14  1  0
 14 15  2  0
 14 16  1  0
 16 17  1  0
 17 18  1  0
 18 19  1  0
 19 20  1  0
 20 21  1  1
 21 22  1  0
 22 23  1  0
 22 24  1  0
 24 25  1  0
 24 26  1  0
 20 27  1  0
 10  2  1  0
 27 16  1  0
M  END
>  <ref_pdb>  (11) 
x0554_0A

>  <ref_mols>  (11) 
x0310_0A,x0556_0A

>  <original SMILES>  (11) 
Cc1nc(C(N)=O)ccc1NC(=O)C(=O)N1CCC[C@H](CN(C)C(C)C)C1

>  <IC50 (nM)>  (11) 
896.2723527945275

>  <CNNaffinity>  (11) 
6.04756

>  <rationale>  (11) 
-1

$$$$
PV_002245039022
     RDKit          3D

 26 28  0  0  0  0  0  0  0  0999 V2000
    9.5913    9.3764   23.2419 C   0  0  0  0  0  0  0  0  0  0  0  0
    8.8443   10.5418   23.8303 C   0  0  0  0  0  0  0  0  0  0  0  0
    7.7213   10.2934   24.4943 N   0  0  0  0  0  0  0  0  0  0  0  0
    7.0166   11.3148   24.9954 C   0  0  0  0  0  0  0  0  0  0  0  0
    5.7795   10.9882   25.7934 C   0  0  0  0  0  0  0  0  0  0  0  0
    5.4696    9.6726   25.8552 N   0  0  0  0  0  0  0  0  0  0  0  0
    5.1313   11.8629   26.3457 O   0  0  0  0  0  0  0  0  0  0  0  0
    7.3836   12.6445   24.8402 C   0  0  0  0  0  0  0  0  0  0  0  0
    8.5727   12.9122   24.1785 C   0  0  0  0  0  0  0  0  0  0  0  0
    9.3195   11.8502   23.6856 C   0  0  0  0  0  0  0  0  0  0  0  0
   10.5609   12.0757   23.0329 N   0  0  0  0  0  0  0  0  0  0  0  0
   11.6185   12.6075   23.7330 C   0  0  0  0  0  0  0  0  0  0  0  0
   11.7031   12.5533   24.9420 O   0  0  0  0  0  0  0  0  0  0  0  0
   12.6789   13.2602   22.8429 C   0  0  0  0  0  0  0  0  0  0  0  0
   12.0888   14.3381   21.9671 C   0  0  0  0  0  0  0  0  0  0  0  0
   11.7369   15.5857   22.3874 C   0  0  0  0  0  0  0  0  0  0  0  0
   10.9892   16.4615   21.1145 S   0  0  0  0  0  0  0  0  0  0  0  0
   11.1857   15.0722   20.0848 C   0  0  0  0  0  0  0  0  0  0  0  0
   10.6658   15.0757   18.7038 C   0  0  0  0  0  0  0  0  0  0  0  0
   10.4050   16.2815   18.0470 C   0  0  0  0  0  0  0  0  0  0  0  0
    9.7944   16.2417   16.8071 C   0  0  0  0  0  0  0  0  0  0  0  0
    9.4874   17.3937   16.1884 F   0  0  0  0  0  0  0  0  0  0  0  0
    9.4778   15.0491   16.1794 C   0  0  0  0  0  0  0  0  0  0  0  0
    9.7895   13.8541   16.8170 C   0  0  0  0  0  0  0  0  0  0  0  0
   10.3818   13.8620   18.0756 C   0  0  0  0  0  0  0  0  0  0  0  0
   11.7507   14.0509   20.6640 N   0  0  0  0  0  0  0  0  0  0  0  0
  1  2  1  0
  2  3  2  0
  3  4  1  0
  4  5  1  0
  5  6  1  0
  5  7  2  0
  4  8  2  0
  8  9  1  0
  9 10  2  0
 10 11  1  0
 11 12  1  0
 12 13  2  0
 12 14  1  0
 14 15  1  0
 15 16  2  0
 16 17  1  0
 17 18  1  0
 18 19  1  0
 19 20  2  0
 20 21  1  0
 21 22  1  0
 21 23  2  0
 23 24  1  0
 24 25  2  0
 18 26  2  0
 10  2  1  0
 26 15  1  0
 25 19  1  0
M  END
>  <ref_pdb>  (12) 
x0554_0A

>  <ref_mols>  (12) 
x0310_0A,x0556_0A

>  <original SMILES>  (12) 
Cc1nc(C(N)=O)ccc1NC(=O)Cc1csc(-c2cccc(F)c2)n1

>  <IC50 (nM)>  (12) 
952.3136295187475

>  <CNNaffinity>  (12) 
6.02122

>  <rationale>  (12) 
-1

$$$$
PV_005424219743
     RDKit          3D

 27 29  0  0  0  0  0  0  0  0999 V2000
    9.7263    9.1977   23.1861 C   0  0  0  0  0  0  0  0  0  0  0  0
    8.9455   10.3481   23.7824 C   0  0  0  0  0  0  0  0  0  0  0  0
    7.8587   10.0151   24.4896 N   0  0  0  0  0  0  0  0  0  0  0  0
    7.1083   10.9778   25.0792 C   0  0  0  0  0  0  0  0  0  0  0  0
    5.8277   10.6250   25.8875 C   0  0  0  0  0  0  0  0  0  0  0  0
    5.4883    9.3267   26.1143 N   0  0  0  0  0  0  0  0  0  0  0  0
    5.1154   11.4883   26.3773 O   0  0  0  0  0  0  0  0  0  0  0  0
    7.4739   12.3287   24.9930 C   0  0  0  0  0  0  0  0  0  0  0  0
    8.5930   12.7017   24.2542 C   0  0  0  0  0  0  0  0  0  0  0  0
    9.3356   11.7163   23.6008 C   0  0  0  0  0  0  0  0  0  0  0  0
   10.4473   12.1068   22.7976 N   0  0  0  0  0  0  0  0  0  0  0  0
   10.6395   13.3150   22.1628 C   0  0  0  0  0  0  0  0  0  0  0  0
    9.8018   14.2048   22.1426 O   0  0  0  0  0  0  0  0  0  0  0  0
   12.0612   13.4200   21.3999 C   0  0  0  0  0  0  0  0  0  0  0  0
   12.9070   12.5465   21.5513 O   0  0  0  0  0  0  0  0  0  0  0  0
   12.2507   14.4754   20.5206 N   0  0  0  0  0  0  0  0  0  0  0  0
   12.9482   14.2506   19.2470 C   0  0  0  0  0  0  0  0  0  0  0  0
   12.2883   14.8191   17.9656 C   0  0  0  0  0  0  0  0  0  0  0  0
   10.7834   14.8209   17.9034 C   0  0  0  0  0  0  0  0  0  0  0  0
   10.0904   14.2968   16.8084 C   0  0  0  0  0  0  0  0  0  0  0  0
    8.6950   14.1793   16.8359 C   0  0  0  0  0  0  0  0  0  0  0  0
    8.0024   14.5667   17.9836 C   0  0  0  0  0  0  0  0  0  0  0  0
    8.7063   15.1193   19.0680 C   0  0  0  0  0  0  0  0  0  0  0  0
   10.0570   15.4253   18.9542 C   0  0  0  0  0  0  0  0  0  0  0  0
   10.7848   16.4521   19.8316 C   0  0  1  0  0  0  0  0  0  0  0  0
    9.8493   17.4251   20.5592 C   0  0  0  0  0  0  0  0  0  0  0  0
   11.8299   15.8406   20.8166 C   0  0  0  0  0  0  0  0  0  0  0  0
  1  2  1  0
  2  3  2  0
  3  4  1  0
  4  5  1  0
  5  6  1  0
  5  7  2  0
  4  8  2  0
  8  9  1  0
  9 10  2  0
 10 11  1  0
 11 12  1  0
 12 13  2  0
 12 14  1  0
 14 15  2  0
 14 16  1  0
 16 17  1  0
 17 18  1  0
 18 19  1  0
 19 20  2  0
 20 21  1  0
 21 22  2  0
 22 23  1  0
 23 24  2  0
 24 25  1  0
 25 26  1  1
 25 27  1  0
 10  2  1  0
 27 16  1  0
 24 19  1  0
M  END
>  <ref_pdb>  (13) 
x0554_0A

>  <ref_mols>  (13) 
x0310_0A,x0556_0A

>  <original SMILES>  (13) 
Cc1nc(C(N)=O)ccc1NC(=O)C(=O)N1CCc2ccccc2[C@@H](C)C1

>  <IC50 (nM)>  (13) 
955.4104782484242

>  <CNNaffinity>  (13) 
6.01981

>  <rationale>  (13) 
-1

$$$$
PV_002449833065
     RDKit          3D

 27 29  0  0  0  0  0  0  0  0999 V2000
    9.7223    9.0899   23.1590 C   0  0  0  0  0  0  0  0  0  0  0  0
    8.9608   10.2694   23.7039 C   0  0  0  0  0  0  0  0  0  0  0  0
    7.8699   10.0170   24.4247 N   0  0  0  0  0  0  0  0  0  0  0  0
    7.1860   11.0382   24.9544 C   0  0  0  0  0  0  0  0  0  0  0  0
    5.9641   10.7651   25.8000 C   0  0  0  0  0  0  0  0  0  0  0  0
    5.6999    9.4629   26.0623 N   0  0  0  0  0  0  0  0  0  0  0  0
    5.2901   11.6786   26.2464 O   0  0  0  0  0  0  0  0  0  0  0  0
    7.5566   12.3642   24.7908 C   0  0  0  0  0  0  0  0  0  0  0  0
    8.6990   12.6396   24.0654 C   0  0  0  0  0  0  0  0  0  0  0  0
    9.4131   11.5878   23.5081 C   0  0  0  0  0  0  0  0  0  0  0  0
   10.6106   11.8685   22.7943 N   0  0  0  0  0  0  0  0  0  0  0  0
   11.4920   12.7885   23.2766 C   0  0  0  0  0  0  0  0  0  0  0  0
   11.4191   13.3104   24.3678 O   0  0  0  0  0  0  0  0  0  0  0  0
   12.6347   13.1953   22.3067 C   0  0  0  0  0  0  0  0  0  0  0  0
   13.4672   13.9868   23.0063 F   0  0  0  0  0  0  0  0  0  0  0  0
   13.2983   12.1132   21.8557 F   0  0  0  0  0  0  0  0  0  0  0  0
   12.1568   13.8821   21.1226 N   0  0  0  0  0  0  0  0  0  0  0  0
   11.3357   14.9584   21.0335 C   0  0  0  0  0  0  0  0  0  0  0  0
   11.2048   15.1772   19.6839 C   0  0  0  0  0  0  0  0  0  0  0  0
   10.4286   16.1764   18.9409 C   0  0  0  0  0  0  0  0  0  0  0  0
   10.0635   15.9349   17.6136 C   0  0  0  0  0  0  0  0  0  0  0  0
    9.2977   16.8626   16.9190 C   0  0  0  0  0  0  0  0  0  0  0  0
    8.9081   18.0493   17.5386 C   0  0  0  0  0  0  0  0  0  0  0  0
    9.2740   18.2958   18.8595 C   0  0  0  0  0  0  0  0  0  0  0  0
   10.0349   17.3651   19.5568 C   0  0  0  0  0  0  0  0  0  0  0  0
   11.9593   14.2384   19.0391 N   0  0  0  0  0  0  0  0  0  0  0  0
   12.5383   13.4774   19.9047 N   0  0  0  0  0  0  0  0  0  0  0  0
  1  2  1  0
  2  3  2  0
  3  4  1  0
  4  5  1  0
  5  6  1  0
  5  7  2  0
  4  8  2  0
  8  9  1  0
  9 10  2  0
 10 11  1  0
 11 12  1  0
 12 13  2  0
 12 14  1  0
 14 15  1  0
 14 16  1  0
 14 17  1  0
 17 18  1  0
 18 19  2  0
 19 20  1  0
 20 21  2  0
 21 22  1  0
 22 23  2  0
 23 24  1  0
 24 25  2  0
 19 26  1  0
 26 27  2  0
 10  2  1  0
 27 17  1  0
 25 20  1  0
M  END
>  <ref_pdb>  (14) 
x0554_0A

>  <ref_mols>  (14) 
x0310_0A,x0556_0A

>  <original SMILES>  (14) 
Cc1nc(C(N)=O)ccc1NC(=O)C(F)(F)n1cc(-c2ccccc2)nn1

>  <IC50 (nM)>  (14) 
998.5964090497458

>  <CNNaffinity>  (14) 
6.00061

>  <rationale>  (14) 
-1

$$$$
Z2963612941
     RDKit          3D

 25 26  0  0  0  0  0  0  0  0999 V2000
    9.6518    9.1103   23.2203 C   0  0  0  0  0  0  0  0  0  0  0  0
    8.9346   10.3081   23.7928 C   0  0  0  0  0  0  0  0  0  0  0  0
    7.8180   10.0776   24.4778 N   0  0  0  0  0  0  0  0  0  0  0  0
    7.1314   11.1060   24.9899 C   0  0  0  0  0  0  0  0  0  0  0  0
    5.8963   10.8276   25.8129 C   0  0  0  0  0  0  0  0  0  0  0  0
    5.6318    9.5185   26.0180 N   0  0  0  0  0  0  0  0  0  0  0  0
    5.2250   11.7354   26.2736 O   0  0  0  0  0  0  0  0  0  0  0  0
    7.5150   12.4254   24.8184 C   0  0  0  0  0  0  0  0  0  0  0  0
    8.6905   12.6803   24.1340 C   0  0  0  0  0  0  0  0  0  0  0  0
    9.4310   11.6145   23.6348 C   0  0  0  0  0  0  0  0  0  0  0  0
   10.6781   11.8338   22.9893 N   0  0  0  0  0  0  0  0  0  0  0  0
   11.6290   12.6609   23.5430 C   0  0  0  0  0  0  0  0  0  0  0  0
   11.5885   13.0281   24.6985 O   0  0  0  0  0  0  0  0  0  0  0  0
   12.7364   13.1194   22.5950 C   0  0  0  0  0  0  0  0  0  0  0  0
   12.2146   14.2057   21.6987 C   0  0  0  0  0  0  0  0  0  0  0  0
   12.1779   15.5388   21.9612 C   0  0  0  0  0  0  0  0  0  0  0  0
   11.2478   16.3691   20.7746 S   0  0  0  0  0  0  0  0  0  0  0  0
   11.0164   14.8579   19.9628 C   0  0  0  0  0  0  0  0  0  0  0  0
   10.3319   14.7010   18.6585 C   0  0  0  0  0  0  0  0  0  0  0  0
   11.3275   14.7646   17.5053 C   0  0  0  0  0  0  0  0  0  0  0  0
   10.6962   14.3030   16.2139 C   0  0  0  0  0  0  0  0  0  0  0  0
   11.6291   13.8597   15.3577 F   0  0  0  0  0  0  0  0  0  0  0  0
   10.0111   15.3035   15.6274 F   0  0  0  0  0  0  0  0  0  0  0  0
    9.8199   13.2919   16.3895 F   0  0  0  0  0  0  0  0  0  0  0  0
   11.5690   13.8379   20.5442 N   0  0  0  0  0  0  0  0  0  0  0  0
  1  2  1  0
  2  3  2  0
  3  4  1  0
  4  5  1  0
  5  6  1  0
  5  7  2  0
  4  8  2  0
  8  9  1  0
  9 10  2  0
 10 11  1  0
 11 12  1  0
 12 13  2  0
 12 14  1  0
 14 15  1  0
 15 16  2  0
 16 17  1  0
 17 18  1  0
 18 19  1  0
 19 20  1  0
 20 21  1  0
 21 22  1  0
 21 23  1  0
 21 24  1  0
 18 25  2  0
 10  2  1  0
 25 15  1  0
M  END
>  <ref_pdb>  (15) 
x0554_0A

>  <ref_mols>  (15) 
x0310_0A,x0556_0A

>  <original SMILES>  (15) 
Cc1nc(C(N)=O)ccc1NC(=O)Cc1csc(CCC(F)(F)F)n1

>  <IC50 (nM)>  (15) 
1010.3689702462361

>  <CNNaffinity>  (15) 
5.99552

>  <rationale>  (15) 
-1

$$$$
PV_002186254190
     RDKit          3D

 25 27  0  0  0  0  0  0  0  0999 V2000
    9.8041    9.1369   23.0491 C   0  0  0  0  0  0  0  0  0  0  0  0
    9.0665   10.2816   23.6967 C   0  0  0  0  0  0  0  0  0  0  0  0
    7.9903    9.9758   24.3992 N   0  0  0  0  0  0  0  0  0  0  0  0
    7.2808   10.9507   24.9738 C   0  0  0  0  0  0  0  0  0  0  0  0
    6.0935   10.5075   25.7847 C   0  0  0  0  0  0  0  0  0  0  0  0
    5.0714   11.4288   25.8232 N   0  0  0  0  0  0  0  0  0  0  0  0
    6.0612    9.4563   26.3881 O   0  0  0  0  0  0  0  0  0  0  0  0
    7.6420   12.2897   24.8861 C   0  0  0  0  0  0  0  0  0  0  0  0
    8.7920   12.6257   24.1952 C   0  0  0  0  0  0  0  0  0  0  0  0
    9.5208   11.6120   23.5881 C   0  0  0  0  0  0  0  0  0  0  0  0
   10.6983   11.8789   22.8617 N   0  0  0  0  0  0  0  0  0  0  0  0
   11.5596   12.9048   23.1464 C   0  0  0  0  0  0  0  0  0  0  0  0
   11.4743   13.5977   24.1453 O   0  0  0  0  0  0  0  0  0  0  0  0
   12.5888   13.2032   22.0629 C   0  0  0  0  0  0  0  0  0  0  0  0
   11.9633   14.0949   21.0408 C   0  0  0  0  0  0  0  0  0  0  0  0
   11.5330   15.3702   21.2037 C   0  0  0  0  0  0  0  0  0  0  0  0
   11.5340   16.3107   22.3377 C   0  0  0  0  0  0  0  0  0  0  0  0
   10.9569   15.7710   20.0331 O   0  0  0  0  0  0  0  0  0  0  0  0
   11.0217   14.6785   19.2387 C   0  0  0  0  0  0  0  0  0  0  0  0
   10.4172   14.7626   17.9494 C   0  0  0  0  0  0  0  0  0  0  0  0
   10.2669   15.8634   17.1517 C   0  0  0  0  0  0  0  0  0  0  0  0
    9.6996   15.5292   15.8921 C   0  0  0  0  0  0  0  0  0  0  0  0
    9.4758   14.1835   15.7768 C   0  0  0  0  0  0  0  0  0  0  0  0
    9.8506   13.3322   17.2000 S   0  0  0  0  0  0  0  0  0  0  0  0
   11.6018   13.6606   19.7814 N   0  0  0  0  0  0  0  0  0  0  0  0
  1  2  1  0
  2  3  2  0
  3  4  1  0
  4  5  1  0
  5  6  1  0
  5  7  2  0
  4  8  2  0
  8  9  1  0
  9 10  2  0
 10 11  1  0
 11 12  1  0
 12 13  2  0
 12 14  1  0
 14 15  1  0
 15 16  2  0
 16 17  1  0
 16 18  1  0
 18 19  1  0
 19 20  1  0
 20 21  2  0
 21 22  1  0
 22 23  2  0
 23 24  1  0
 19 25  2  0
 10  2  1  0
 25 15  1  0
 24 20  1  0
M  END
>  <ref_pdb>  (16) 
x0554_0A

>  <ref_mols>  (16) 
x0310_0A,x0556_0A

>  <original SMILES>  (16) 
Cc1nc(C(N)=O)ccc1NC(=O)Cc1nc(-c2cccs2)oc1C

>  <IC50 (nM)>  (16) 
1016.6699800054938

>  <CNNaffinity>  (16) 
5.99282

>  <rationale>  (16) 
-1

$$$$
PV_004779575768
     RDKit          3D

 28 30  0  0  0  0  0  0  0  0999 V2000
    8.3002   19.3676   17.2709 C   0  0  0  0  0  0  0  0  0  0  0  0
    9.1810   18.1556   17.1654 C   0  0  0  0  0  0  0  0  0  0  0  0
   10.5250   18.2776   17.4918 C   0  0  0  0  0  0  0  0  0  0  0  0
   11.2926   17.1417   17.6621 C   0  0  0  0  0  0  0  0  0  0  0  0
   10.7032   15.8807   17.6763 C   0  0  0  0  0  0  0  0  0  0  0  0
   11.3561   14.7410   18.4323 C   0  0  1  0  0  0  0  0  0  0  0  0
   12.6618   15.1303   19.1498 C   0  0  0  0  0  0  0  0  0  0  0  0
   12.7535   14.1472   20.2895 C   0  0  0  0  0  0  0  0  0  0  0  0
   11.3717   14.0671   20.7332 N   0  0  0  0  0  0  0  0  0  0  0  0
   11.1520   13.4505   21.9101 C   0  0  0  0  0  0  0  0  0  0  0  0
   12.0631   13.0070   22.6029 O   0  0  0  0  0  0  0  0  0  0  0  0
    9.6965   13.3030   22.4103 C   0  0  0  0  0  0  0  0  0  0  0  0
    8.7475   13.9013   21.9372 O   0  0  0  0  0  0  0  0  0  0  0  0
    9.6603   12.4005   23.4251 N   0  0  0  0  0  0  0  0  0  0  0  0
    8.5173   12.0034   24.1529 C   0  0  0  0  0  0  0  0  0  0  0  0
    7.6729   12.9291   24.7471 C   0  0  0  0  0  0  0  0  0  0  0  0
    6.6257   12.4697   25.5348 C   0  0  0  0  0  0  0  0  0  0  0  0
    6.4282   11.1006   25.6236 C   0  0  0  0  0  0  0  0  0  0  0  0
    5.2710   10.5554   26.4235 C   0  0  0  0  0  0  0  0  0  0  0  0
    5.0199    9.2407   26.2117 N   0  0  0  0  0  0  0  0  0  0  0  0
    4.6173   11.2653   27.1715 O   0  0  0  0  0  0  0  0  0  0  0  0
    7.2221   10.2091   25.0188 N   0  0  0  0  0  0  0  0  0  0  0  0
    8.2672   10.6286   24.3219 C   0  0  0  0  0  0  0  0  0  0  0  0
    9.1622    9.5804   23.7148 C   0  0  0  0  0  0  0  0  0  0  0  0
   10.4853   14.1349   19.5747 C   0  0  0  0  0  0  0  0  0  0  0  0
    9.4494   15.7347   17.0525 C   0  0  0  0  0  0  0  0  0  0  0  0
    8.8430   14.3878   16.7364 C   0  0  0  0  0  0  0  0  0  0  0  0
    8.7208   16.8931   16.7860 C   0  0  0  0  0  0  0  0  0  0  0  0
  1  2  1  0
  2  3  2  0
  3  4  1  0
  4  5  2  0
  6  5  1  1
  6  7  1  0
  7  8  1  0
  8  9  1  0
  9 10  1  0
 10 11  2  0
 10 12  1  0
 12 13  2  0
 12 14  1  0
 14 15  1  0
 15 16  2  0
 16 17  1  0
 17 18  2  0
 18 19  1  0
 19 20  1  0
 19 21  2  0
 18 22  1  0
 22 23  2  0
 23 24  1  0
  9 25  1  0
  5 26  1  0
 26 27  1  0
 26 28  2  0
 28  2  1  0
 25  6  1  0
 23 15  1  0
M  END
>  <ref_pdb>  (17) 
x0554_0A

>  <ref_mols>  (17) 
x0310_0A,x0556_0A

>  <original SMILES>  (17) 
Cc1ccc([C@H]2CCN(C(=O)C(=O)Nc3ccc(C(N)=O)nc3C)C2)c(C)c1

>  <IC50 (nM)>  (17) 
1028.7740476585295

>  <CNNaffinity>  (17) 
5.98768

>  <rationale>  (17) 
-1

$$$$
PV_002452193392
     RDKit          3D

 26 28  0  0  0  0  0  0  0  0999 V2000
    9.7223    9.1986   23.1757 C   0  0  0  0  0  0  0  0  0  0  0  0
    8.9485   10.3850   23.6902 C   0  0  0  0  0  0  0  0  0  0  0  0
    7.8453   10.1086   24.3710 N   0  0  0  0  0  0  0  0  0  0  0  0
    7.1005   11.1025   24.8602 C   0  0  0  0  0  0  0  0  0  0  0  0
    5.8651   10.7196   25.6430 C   0  0  0  0  0  0  0  0  0  0  0  0
    5.5811   11.5988   26.6618 N   0  0  0  0  0  0  0  0  0  0  0  0
    5.1622    9.7627   25.3918 O   0  0  0  0  0  0  0  0  0  0  0  0
    7.4222   12.4408   24.6642 C   0  0  0  0  0  0  0  0  0  0  0  0
    8.5884   12.7471   23.9902 C   0  0  0  0  0  0  0  0  0  0  0  0
    9.3675   11.7146   23.4863 C   0  0  0  0  0  0  0  0  0  0  0  0
   10.5538   12.0053   22.7686 N   0  0  0  0  0  0  0  0  0  0  0  0
   11.4151   12.9895   23.1818 C   0  0  0  0  0  0  0  0  0  0  0  0
   11.3479   13.5309   24.2693 O   0  0  0  0  0  0  0  0  0  0  0  0
   12.4810   13.3845   22.1535 C   0  0  0  0  0  0  0  0  0  0  0  0
   11.9394   13.6296   20.8600 O   0  0  0  0  0  0  0  0  0  0  0  0
   11.1228   14.7039   20.6675 C   0  0  0  0  0  0  0  0  0  0  0  0
   10.8690   15.6891   21.5918 C   0  0  0  0  0  0  0  0  0  0  0  0
   10.1078   16.8219   21.2268 C   0  0  0  0  0  0  0  0  0  0  0  0
    9.6259   16.9650   19.9540 C   0  0  0  0  0  0  0  0  0  0  0  0
    8.7853   18.4270   19.5283 Cl  0  0  0  0  0  0  0  0  0  0  0  0
    9.7830   15.9315   18.9956 C   0  0  0  0  0  0  0  0  0  0  0  0
    9.2460   15.9874   17.6847 C   0  0  0  0  0  0  0  0  0  0  0  0
    9.3423   14.8825   16.8868 C   0  0  0  0  0  0  0  0  0  0  0  0
   10.0088   13.7418   17.3916 C   0  0  0  0  0  0  0  0  0  0  0  0
   10.5731   13.6719   18.5742 N   0  0  0  0  0  0  0  0  0  0  0  0
   10.4872   14.7579   19.3774 C   0  0  0  0  0  0  0  0  0  0  0  0
  1  2  1  0
  2  3  2  0
  3  4  1  0
  4  5  1  0
  5  6  1  0
  5  7  2  0
  4  8  2  0
  8  9  1  0
  9 10  2  0
 10 11  1  0
 11 12  1  0
 12 13  2  0
 12 14  1  0
 14 15  1  0
 15 16  1  0
 16 17  2  0
 17 18  1  0
 18 19  2  0
 19 20  1  0
 19 21  1  0
 21 22  2  0
 22 23  1  0
 23 24  2  0
 24 25  1  0
 25 26  2  0
 10  2  1  0
 26 16  1  0
 26 21  1  0
M  END
>  <ref_pdb>  (18) 
x0554_0A

>  <ref_mols>  (18) 
x0310_0A,x0556_0A

>  <original SMILES>  (18) 
Cc1nc(C(N)=O)ccc1NC(=O)COc1ccc(Cl)c2cccnc12

>  <IC50 (nM)>  (18) 
1030.9319518593568

>  <CNNaffinity>  (18) 
5.98677

>  <rationale>  (18) 
-1

$$$$
PV_002349966746
     RDKit          3D

 26 28  0  0  0  0  0  0  0  0999 V2000
    9.6571    9.1972   23.1696 C   0  0  0  0  0  0  0  0  0  0  0  0
    8.9210   10.3842   23.7369 C   0  0  0  0  0  0  0  0  0  0  0  0
    7.8339   10.1319   24.4594 N   0  0  0  0  0  0  0  0  0  0  0  0
    7.1515   11.1475   24.9988 C   0  0  0  0  0  0  0  0  0  0  0  0
    5.9251   10.8440   25.8254 C   0  0  0  0  0  0  0  0  0  0  0  0
    5.6769    9.5303   26.0264 N   0  0  0  0  0  0  0  0  0  0  0  0
    5.2403   11.7408   26.2902 O   0  0  0  0  0  0  0  0  0  0  0  0
    7.5361   12.4705   24.8576 C   0  0  0  0  0  0  0  0  0  0  0  0
    8.6750   12.7504   24.1248 C   0  0  0  0  0  0  0  0  0  0  0  0
    9.3801   11.7045   23.5445 C   0  0  0  0  0  0  0  0  0  0  0  0
   10.5442   11.9694   22.7816 N   0  0  0  0  0  0  0  0  0  0  0  0
   11.4712   12.9095   23.1544 C   0  0  0  0  0  0  0  0  0  0  0  0
   11.4593   13.4707   24.2351 O   0  0  0  0  0  0  0  0  0  0  0  0
   12.5364   13.2523   22.1001 C   0  0  0  0  0  0  0  0  0  0  0  0
   12.0221   13.5683   20.8193 O   0  0  0  0  0  0  0  0  0  0  0  0
   11.1213   14.5797   20.6922 C   0  0  0  0  0  0  0  0  0  0  0  0
   10.5064   14.6579   19.4436 C   0  0  0  0  0  0  0  0  0  0  0  0
   10.7507   13.7831   18.4400 O   0  0  0  0  0  0  0  0  0  0  0  0
   10.0335   14.2311   17.2603 C   0  0  0  0  0  0  0  0  0  0  0  0
    9.3975   12.9975   16.6150 C   0  0  0  0  0  0  0  0  0  0  0  0
   11.0590   14.9001   16.3604 C   0  0  0  0  0  0  0  0  0  0  0  0
    8.9978   15.2558   17.7838 C   0  0  0  0  0  0  0  0  0  0  0  0
    9.5335   15.5895   19.1487 C   0  0  0  0  0  0  0  0  0  0  0  0
    9.1838   16.5434   20.0919 C   0  0  0  0  0  0  0  0  0  0  0  0
    9.8027   16.4992   21.3380 C   0  0  0  0  0  0  0  0  0  0  0  0
   10.7642   15.5308   21.6480 C   0  0  0  0  0  0  0  0  0  0  0  0
  1  2  1  0
  2  3  2  0
  3  4  1  0
  4  5  1  0
  5  6  1  0
  5  7  2  0
  4  8  2  0
  8  9  1  0
  9 10  2  0
 10 11  1  0
 11 12  1  0
 12 13  2  0
 12 14  1  0
 14 15  1  0
 15 16  1  0
 16 17  2  0
 17 18  1  0
 18 19  1  0
 19 20  1  0
 19 21  1  0
 19 22  1  0
 22 23  1  0
 23 24  2  0
 24 25  1  0
 25 26  2  0
 10  2  1  0
 26 16  1  0
 23 17  1  0
M  END
>  <ref_pdb>  (19) 
x0554_0A

>  <ref_mols>  (19) 
x0310_0A,x0556_0A

>  <original SMILES>  (19) 
Cc1nc(C(N)=O)ccc1NC(=O)COc1cccc2c1OC(C)(C)C2

>  <IC50 (nM)>  (19) 
1061.2311763583616

>  <CNNaffinity>  (19) 
5.97419

>  <rationale>  (19) 
-1

$$$$
PV_003186466265
     RDKit          3D

 27 30  0  0  0  0  0  0  0  0999 V2000
    9.7405    9.0551   23.1363 C   0  0  0  0  0  0  0  0  0  0  0  0
    9.0076   10.2357   23.7269 C   0  0  0  0  0  0  0  0  0  0  0  0
    7.8725    9.9761   24.3826 N   0  0  0  0  0  0  0  0  0  0  0  0
    7.1612   10.9876   24.9402 C   0  0  0  0  0  0  0  0  0  0  0  0
    5.8752   10.7078   25.7663 C   0  0  0  0  0  0  0  0  0  0  0  0
    5.5520    9.4269   26.1173 N   0  0  0  0  0  0  0  0  0  0  0  0
    5.1610   11.6080   26.1740 O   0  0  0  0  0  0  0  0  0  0  0  0
    7.5765   12.3213   24.8151 C   0  0  0  0  0  0  0  0  0  0  0  0
    8.7735   12.6085   24.1640 C   0  0  0  0  0  0  0  0  0  0  0  0
    9.5203   11.5651   23.6143 C   0  0  0  0  0  0  0  0  0  0  0  0
   10.7730   11.8682   22.9979 N   0  0  0  0  0  0  0  0  0  0  0  0
   11.6950   12.7560   23.5080 C   0  0  0  0  0  0  0  0  0  0  0  0
   11.5982   13.2493   24.6147 O   0  0  0  0  0  0  0  0  0  0  0  0
   12.8368   13.1143   22.5667 C   0  0  0  0  0  0  0  0  0  0  0  0
   12.3728   14.1931   21.6068 C   0  0  0  0  0  0  0  0  0  0  0  0
   12.0955   15.4867   22.1041 C   0  0  0  0  0  0  0  0  0  0  0  0
   11.5934   16.5076   21.2913 C   0  0  0  0  0  0  0  0  0  0  0  0
   11.2195   16.1513   19.9975 C   0  0  0  0  0  0  0  0  0  0  0  0
   10.5817   16.9483   19.0797 O   0  0  0  0  0  0  0  0  0  0  0  0
   10.1675   16.0964   18.0847 C   0  0  0  0  0  0  0  0  0  0  0  0
    9.3825   16.4298   16.9828 C   0  0  0  0  0  0  0  0  0  0  0  0
    8.9380   15.3605   16.2016 C   0  0  0  0  0  0  0  0  0  0  0  0
    9.2522   14.0217   16.4939 C   0  0  0  0  0  0  0  0  0  0  0  0
   10.0583   13.7196   17.5826 C   0  0  0  0  0  0  0  0  0  0  0  0
   10.5640   14.7762   18.3408 C   0  0  0  0  0  0  0  0  0  0  0  0
   11.3540   14.8354   19.5379 C   0  0  0  0  0  0  0  0  0  0  0  0
   12.0589   13.8896   20.2859 C   0  0  0  0  0  0  0  0  0  0  0  0
  1  2  1  0
  2  3  2  0
  3  4  1  0
  4  5  1  0
  5  6  1  0
  5  7  2  0
  4  8  2  0
  8  9  1  0
  9 10  2  0
 10 11  1  0
 11 12  1  0
 12 13  2  0
 12 14  1  0
 14 15  1  0
 15 16  2  0
 16 17  1  0
 17 18  2  0
 18 19  1  0
 19 20  1  0
 20 21  2  0
 21 22  1  0
 22 23  2  0
 23 24  1  0
 24 25  2  0
 25 26  1  0
 26 27  2  0
 10  2  1  0
 27 15  1  0
 26 18  1  0
 25 20  1  0
M  END
>  <ref_pdb>  (20) 
x0554_0A

>  <ref_mols>  (20) 
x0310_0A,x0556_0A

>  <original SMILES>  (20) 
Cc1nc(C(N)=O)ccc1NC(=O)Cc1ccc2oc3ccccc3c2c1

>  <IC50 (nM)>  (20) 
1062.5270617234664

>  <CNNaffinity>  (20) 
5.97366

>  <rationale>  (20) 
-1

$$$$
PV_002581766471
     RDKit          3D

 26 28  0  0  0  0  0  0  0  0999 V2000
    9.7197    9.1979   23.1331 C   0  0  0  0  0  0  0  0  0  0  0  0
    8.9786   10.3855   23.6878 C   0  0  0  0  0  0  0  0  0  0  0  0
    7.8960   10.1306   24.4168 N   0  0  0  0  0  0  0  0  0  0  0  0
    7.2098   11.1452   24.9540 C   0  0  0  0  0  0  0  0  0  0  0  0
    5.9801   10.8486   25.7847 C   0  0  0  0  0  0  0  0  0  0  0  0
    5.7275    9.5384   26.0167 N   0  0  0  0  0  0  0  0  0  0  0  0
    5.2945   11.7508   26.2369 O   0  0  0  0  0  0  0  0  0  0  0  0
    7.5922   12.4692   24.8061 C   0  0  0  0  0  0  0  0  0  0  0  0
    8.7381   12.7499   24.0815 C   0  0  0  0  0  0  0  0  0  0  0  0
    9.4299   11.7042   23.4835 C   0  0  0  0  0  0  0  0  0  0  0  0
   10.5801   11.9674   22.6951 N   0  0  0  0  0  0  0  0  0  0  0  0
   11.5820   12.7812   23.1651 C   0  0  0  0  0  0  0  0  0  0  0  0
   11.6167   13.1470   24.3236 O   0  0  0  0  0  0  0  0  0  0  0  0
   12.6739   13.1931   22.1713 C   0  0  0  0  0  0  0  0  0  0  0  0
   12.1893   14.0386   21.0782 N   0  0  0  0  0  0  0  0  0  0  0  0
   12.2281   13.6532   19.7557 C   0  0  0  0  0  0  0  0  0  0  0  0
   11.6909   14.2633   18.7655 N   0  0  0  0  0  0  0  0  0  0  0  0
   11.0276   15.4719   19.0237 C   0  0  0  0  0  0  0  0  0  0  0  0
   11.0485   16.0157   20.3131 C   0  0  0  0  0  0  0  0  0  0  0  0
   10.3581   17.2653   20.6012 C   0  0  0  0  0  0  0  0  0  0  0  0
    9.7949   17.8535   19.5763 C   0  0  0  0  0  0  0  0  0  0  0  0
    9.7238   17.4560   18.1810 C   0  0  0  0  0  0  0  0  0  0  0  0
   10.3246   16.0926   18.0030 C   0  0  0  0  0  0  0  0  0  0  0  0
   10.0781   15.4005   16.7050 C   0  0  0  0  0  0  0  0  0  0  0  0
   11.6728   15.2974   21.4158 C   0  0  0  0  0  0  0  0  0  0  0  0
   11.7268   15.7248   22.5536 O   0  0  0  0  0  0  0  0  0  0  0  0
  1  2  1  0
  2  3  2  0
  3  4  1  0
  4  5  1  0
  5  6  1  0
  5  7  2  0
  4  8  2  0
  8  9  1  0
  9 10  2  0
 10 11  1  0
 11 12  1  0
 12 13  2  0
 12 14  1  0
 14 15  1  0
 15 16  1  0
 16 17  2  0
 17 18  1  0
 18 19  2  0
 19 20  1  0
 20 21  2  0
 21 22  1  0
 22 23  2  0
 23 24  1  0
 19 25  1  0
 25 26  2  0
 10  2  1  0
 25 15  1  0
 23 18  1  0
M  END
>  <ref_pdb>  (21) 
x0554_0A

>  <ref_mols>  (21) 
x0310_0A,x0556_0A

>  <original SMILES>  (21) 
Cc1nc(C(N)=O)ccc1NC(=O)Cn1cnc2c(C)cccc2c1=O

>  <IC50 (nM)>  (21) 
1075.35039755601

>  <CNNaffinity>  (21) 
5.96845

>  <rationale>  (21) 
-1

$$$$
PV_006328156824
     RDKit          3D

 25 27  0  0  0  0  0  0  0  0999 V2000
    9.7846    9.4275   23.2719 C   0  0  0  0  0  0  0  0  0  0  0  0
    8.9343   10.5284   23.8614 C   0  0  0  0  0  0  0  0  0  0  0  0
    7.8431   10.1534   24.5178 N   0  0  0  0  0  0  0  0  0  0  0  0
    7.0619   11.0767   25.0841 C   0  0  0  0  0  0  0  0  0  0  0  0
    5.8292   10.5919   25.8116 C   0  0  0  0  0  0  0  0  0  0  0  0
    5.4998   11.3626   26.9011 N   0  0  0  0  0  0  0  0  0  0  0  0
    5.1543    9.6450   25.4642 O   0  0  0  0  0  0  0  0  0  0  0  0
    7.3408   12.4368   25.0067 C   0  0  0  0  0  0  0  0  0  0  0  0
    8.4519   12.8501   24.2951 C   0  0  0  0  0  0  0  0  0  0  0  0
    9.2706   11.8896   23.7127 C   0  0  0  0  0  0  0  0  0  0  0  0
   10.4141   12.2818   22.9781 N   0  0  0  0  0  0  0  0  0  0  0  0
   10.4274   13.3941   22.1991 C   0  0  0  0  0  0  0  0  0  0  0  0
    9.4669   14.1283   22.0431 O   0  0  0  0  0  0  0  0  0  0  0  0
   11.7830   13.6373   21.4824 C   0  0  0  0  0  0  0  0  0  0  0  0
   12.6741   12.8084   21.5576 O   0  0  0  0  0  0  0  0  0  0  0  0
   11.8541   14.8039   20.7624 N   0  0  0  0  0  0  0  0  0  0  0  0
   11.3273   16.0590   21.2752 C   0  0  0  0  0  0  0  0  0  0  0  0
   10.3787   16.8017   20.3277 C   0  0  0  0  0  0  0  0  0  0  0  0
    9.3380   15.7588   19.2821 S   0  0  0  0  0  0  0  0  0  0  0  0
   10.5254   15.4494   17.9348 C   0  0  0  0  0  0  0  0  0  0  0  0
    9.7735   15.0720   16.6324 C   0  0  0  0  0  0  0  0  0  0  0  0
   10.5313   16.1857   15.8744 C   0  0  0  0  0  0  0  0  0  0  0  0
   11.0753   16.7126   17.2217 C   0  0  0  0  0  0  0  0  0  0  0  0
   11.6114   14.4347   18.2959 C   0  0  0  0  0  0  0  0  0  0  0  0
   12.5264   14.8005   19.4681 C   0  0  0  0  0  0  0  0  0  0  0  0
  1  2  1  0
  2  3  2  0
  3  4  1  0
  4  5  1  0
  5  6  1  0
  5  7  2  0
  4  8  2  0
  8  9  1  0
  9 10  2  0
 10 11  1  0
 11 12  1  0
 12 13  2  0
 12 14  1  0
 14 15  2  0
 14 16  1  0
 16 17  1  0
 17 18  1  0
 18 19  1  0
 19 20  1  0
 20 21  1  0
 21 22  1  0
 22 23  1  0
 20 24  1  0
 24 25  1  0
 10  2  1  0
 25 16  1  0
 23 20  1  0
M  END
>  <ref_pdb>  (22) 
x0554_0A

>  <ref_mols>  (22) 
x0310_0A,x0556_0A

>  <original SMILES>  (22) 
Cc1nc(C(N)=O)ccc1NC(=O)C(=O)N1CCSC2(CCC2)CC1

>  <IC50 (nM)>  (22) 
1085.7504049195536

>  <CNNaffinity>  (22) 
5.96427

>  <rationale>  (22) 
-1

$$$$
PV_003885514842
     RDKit          3D

 25 27  0  0  0  0  0  0  0  0999 V2000
    9.6652    9.1235   23.1742 C   0  0  0  0  0  0  0  0  0  0  0  0
    8.9322   10.3271   23.7086 C   0  0  0  0  0  0  0  0  0  0  0  0
    7.8358   10.0975   24.4243 N   0  0  0  0  0  0  0  0  0  0  0  0
    7.1753   11.1266   24.9660 C   0  0  0  0  0  0  0  0  0  0  0  0
    5.9513   10.8418   25.8016 C   0  0  0  0  0  0  0  0  0  0  0  0
    5.6988    9.5322   26.0376 N   0  0  0  0  0  0  0  0  0  0  0  0
    5.2750   11.7505   26.2527 O   0  0  0  0  0  0  0  0  0  0  0  0
    7.5928   12.4429   24.8355 C   0  0  0  0  0  0  0  0  0  0  0  0
    8.7415   12.6970   24.1071 C   0  0  0  0  0  0  0  0  0  0  0  0
    9.4125   11.6377   23.5078 C   0  0  0  0  0  0  0  0  0  0  0  0
   10.5665   11.8707   22.7179 N   0  0  0  0  0  0  0  0  0  0  0  0
   11.4978   12.8248   23.0335 C   0  0  0  0  0  0  0  0  0  0  0  0
   11.4392   13.5134   24.0350 O   0  0  0  0  0  0  0  0  0  0  0  0
   12.6052   13.0399   22.0131 C   0  0  0  0  0  0  0  0  0  0  0  0
   12.1800   13.9714   20.9833 N   0  0  0  0  0  0  0  0  0  0  0  0
   12.4475   13.6889   19.6894 N   0  0  0  0  0  0  0  0  0  0  0  0
   11.8588   14.6512   18.9884 C   0  0  0  0  0  0  0  0  0  0  0  0
   11.9402   14.7775   17.5083 C   0  0  0  0  0  0  0  0  0  0  0  0
   10.6828   14.8120   16.9781 F   0  0  0  0  0  0  0  0  0  0  0  0
   12.5228   15.9740   17.1940 F   0  0  0  0  0  0  0  0  0  0  0  0
   11.1980   15.5532   19.8234 C   0  0  0  0  0  0  0  0  0  0  0  0
   11.4601   15.1211   21.0872 C   0  0  0  0  0  0  0  0  0  0  0  0
   10.8510   16.0087   22.1376 C   0  0  0  0  0  0  0  0  0  0  0  0
   10.2133   17.1445   21.2677 C   0  0  0  0  0  0  0  0  0  0  0  0
   10.2979   16.7405   19.7720 C   0  0  0  0  0  0  0  0  0  0  0  0
  1  2  1  0
  2  3  2  0
  3  4  1  0
  4  5  1  0
  5  6  1  0
  5  7  2  0
  4  8  2  0
  8  9  1  0
  9 10  2  0
 10 11  1  0
 11 12  1  0
 12 13  2  0
 12 14  1  0
 14 15  1  0
 15 16  1  0
 16 17  2  0
 17 18  1  0
 18 19  1  0
 18 20  1  0
 17 21  1  0
 21 22  2  0
 22 23  1  0
 23 24  1  0
 24 25  1  0
 10  2  1  0
 22 15  1  0
 25 21  1  0
M  END
>  <ref_pdb>  (23) 
x0554_0A

>  <ref_mols>  (23) 
x0310_0A,x0556_0A

>  <original SMILES>  (23) 
Cc1nc(C(N)=O)ccc1NC(=O)Cn1nc(C(F)F)c2c1CCC2

>  <IC50 (nM)>  (23) 
1103.7227643662554

>  <CNNaffinity>  (23) 
5.95714

>  <rationale>  (23) 
-1

$$$$
PV_005988638971
     RDKit          3D

 27 28  0  0  0  0  0  0  0  0999 V2000
    9.6830    9.2532   23.2943 C   0  0  0  0  0  0  0  0  0  0  0  0
    8.8950   10.3700   23.9329 C   0  0  0  0  0  0  0  0  0  0  0  0
    7.7943   10.0344   24.6093 N   0  0  0  0  0  0  0  0  0  0  0  0
    7.0240   10.9996   25.1729 C   0  0  0  0  0  0  0  0  0  0  0  0
    5.7338   10.6227   25.9457 C   0  0  0  0  0  0  0  0  0  0  0  0
    5.4120    9.3112   26.1398 N   0  0  0  0  0  0  0  0  0  0  0  0
    4.9920   11.4660   26.4253 O   0  0  0  0  0  0  0  0  0  0  0  0
    7.3574   12.3586   25.0677 C   0  0  0  0  0  0  0  0  0  0  0  0
    8.5001   12.7249   24.3592 C   0  0  0  0  0  0  0  0  0  0  0  0
    9.2982   11.7305   23.8008 C   0  0  0  0  0  0  0  0  0  0  0  0
   10.4798   12.1238   23.0964 N   0  0  0  0  0  0  0  0  0  0  0  0
   10.4938   13.0737   22.1307 C   0  0  0  0  0  0  0  0  0  0  0  0
    9.4534   13.5839   21.6852 O   0  0  0  0  0  0  0  0  0  0  0  0
   11.9205   13.4817   21.5397 C   0  0  0  0  0  0  0  0  0  0  0  0
   12.8938   12.7504   21.6441 O   0  0  0  0  0  0  0  0  0  0  0  0
   11.9461   14.6933   20.8770 N   0  0  0  0  0  0  0  0  0  0  0  0
   11.3755   15.9332   21.4322 C   0  0  0  0  0  0  0  0  0  0  0  0
   10.6636   16.7970   20.3440 C   0  0  0  0  0  0  0  0  0  0  0  0
   11.2427   16.6218   19.0225 C   0  0  0  0  0  0  0  0  0  0  0  0
   12.2256   15.6570   18.6514 C   0  0  2  0  0  0  0  0  0  0  0  0
   11.5988   14.4877   17.7981 C   0  0  0  0  0  0  0  0  0  0  0  0
   10.6353   14.9383   16.3489 O   0  0  0  0  0  0  0  0  0  0  0  0
    9.3759   14.3623   16.3163 C   0  0  0  0  0  0  0  0  0  0  0  0
    9.5025   13.1499   15.8196 F   0  0  0  0  0  0  0  0  0  0  0  0
    8.5631   15.0963   15.5813 F   0  0  0  0  0  0  0  0  0  0  0  0
    8.8269   14.2949   17.5446 F   0  0  0  0  0  0  0  0  0  0  0  0
   12.9260   14.9309   19.8164 C   0  0  0  0  0  0  0  0  0  0  0  0
  1  2  1  0
  2  3  2  0
  3  4  1  0
  4  5  1  0
  5  6  1  0
  5  7  2  0
  4  8  2  0
  8  9  1  0
  9 10  2  0
 10 11  1  0
 11 12  1  0
 12 13  2  0
 12 14  1  0
 14 15  2  0
 14 16  1  0
 16 17  1  0
 17 18  1  0
 18 19  1  0
 19 20  1  0
 20 21  1  6
 21 22  1  0
 22 23  1  0
 23 24  1  0
 23 25  1  0
 23 26  1  0
 20 27  1  0
 10  2  1  0
 27 16  1  0
M  END
>  <ref_pdb>  (24) 
x0554_0A

>  <ref_mols>  (24) 
x0310_0A,x0556_0A

>  <original SMILES>  (24) 
Cc1nc(C(N)=O)ccc1NC(=O)C(=O)N1CCC[C@H](COC(F)(F)F)C1

>  <IC50 (nM)>  (24) 
1114.7051304989914

>  <CNNaffinity>  (24) 
5.95284

>  <rationale>  (24) 
-1

$$$$
PV_002163684767
     RDKit          3D

 27 29  0  0  0  0  0  0  0  0999 V2000
    8.2183   19.5865   18.1691 C   0  0  0  0  0  0  0  0  0  0  0  0
    9.1322   18.4210   17.9974 C   0  0  0  0  0  0  0  0  0  0  0  0
    9.6327   17.7865   19.0412 N   0  0  0  0  0  0  0  0  0  0  0  0
   10.4192   16.7939   18.5421 N   0  0  0  0  0  0  0  0  0  0  0  0
   11.0756   15.9054   19.4506 C   0  0  0  0  0  0  0  0  0  0  0  0
   11.1715   16.2768   20.8065 C   0  0  0  0  0  0  0  0  0  0  0  0
   11.7272   15.4121   21.7436 C   0  0  0  0  0  0  0  0  0  0  0  0
   12.2449   14.1660   21.3585 C   0  0  0  0  0  0  0  0  0  0  0  0
   12.7402   13.1942   22.4100 C   0  0  0  0  0  0  0  0  0  0  0  0
   11.6347   12.8374   23.3943 C   0  0  0  0  0  0  0  0  0  0  0  0
   11.5571   13.3554   24.4924 O   0  0  0  0  0  0  0  0  0  0  0  0
   10.7173   11.9230   22.9239 N   0  0  0  0  0  0  0  0  0  0  0  0
    9.4850   11.6052   23.5693 C   0  0  0  0  0  0  0  0  0  0  0  0
    8.7522   12.6451   24.1439 C   0  0  0  0  0  0  0  0  0  0  0  0
    7.5739   12.3526   24.8231 C   0  0  0  0  0  0  0  0  0  0  0  0
    7.1477   11.0211   24.9272 C   0  0  0  0  0  0  0  0  0  0  0  0
    5.8596   10.7465   25.7512 C   0  0  0  0  0  0  0  0  0  0  0  0
    5.5156    9.4672   26.0773 N   0  0  0  0  0  0  0  0  0  0  0  0
    5.1582   11.6512   26.1721 O   0  0  0  0  0  0  0  0  0  0  0  0
    7.8491   10.0103   24.3545 N   0  0  0  0  0  0  0  0  0  0  0  0
    8.9814   10.2725   23.6936 C   0  0  0  0  0  0  0  0  0  0  0  0
    9.7261    9.0935   23.1116 C   0  0  0  0  0  0  0  0  0  0  0  0
   12.2105   13.8322   20.0036 C   0  0  0  0  0  0  0  0  0  0  0  0
   11.6019   14.6587   19.0582 C   0  0  0  0  0  0  0  0  0  0  0  0
   10.4293   16.8354   17.1685 C   0  0  0  0  0  0  0  0  0  0  0  0
   11.2385   15.9646   16.2738 C   0  0  0  0  0  0  0  0  0  0  0  0
    9.6019   17.8610   16.7972 C   0  0  0  0  0  0  0  0  0  0  0  0
  1  2  1  0
  2  3  2  0
  3  4  1  0
  4  5  1  0
  5  6  2  0
  6  7  1  0
  7  8  2  0
  8  9  1  0
  9 10  1  0
 10 11  2  0
 10 12  1  0
 12 13  1  0
 13 14  2  0
 14 15  1  0
 15 16  2  0
 16 17  1  0
 17 18  1  0
 17 19  2  0
 16 20  1  0
 20 21  2  0
 21 22  1  0
  8 23  1  0
 23 24  2  0
  4 25  1  0
 25 26  1  0
 25 27  2  0
 27  2  1  0
 24  5  1  0
 21 13  1  0
M  END
>  <ref_pdb>  (25) 
x0554_0A

>  <ref_mols>  (25) 
x0310_0A,x0556_0A

>  <original SMILES>  (25) 
Cc1cc(C)n(-c2ccc(CC(=O)Nc3ccc(C(N)=O)nc3C)cc2)n1

>  <IC50 (nM)>  (25) 
1120.417800483215

>  <CNNaffinity>  (25) 
5.95062

>  <rationale>  (25) 
-1

$$$$
PV_003369536933
     RDKit          3D

 26 28  0  0  0  0  0  0  0  0999 V2000
    9.5813   13.4432   15.8737 C   0  0  0  0  0  0  0  0  0  0  0  0
    9.4272   14.7860   16.2907 O   0  0  0  0  0  0  0  0  0  0  0  0
    9.9561   15.0444   17.5200 C   0  0  0  0  0  0  0  0  0  0  0  0
    9.8054   16.3470   18.0484 C   0  0  0  0  0  0  0  0  0  0  0  0
   10.3120   16.6740   19.2979 C   0  0  0  0  0  0  0  0  0  0  0  0
   11.0037   15.6800   20.0042 C   0  0  0  0  0  0  0  0  0  0  0  0
   11.2023   14.4170   19.4512 C   0  0  0  0  0  0  0  0  0  0  0  0
   10.6021   14.0637   18.2526 C   0  0  0  0  0  0  0  0  0  0  0  0
   11.9333   13.6187   20.2998 N   0  0  0  0  0  0  0  0  0  0  0  0
   12.1176   14.3388   21.3706 C   0  0  0  0  0  0  0  0  0  0  0  0
   12.6701   13.7653   22.6443 C   0  0  0  0  0  0  0  0  0  0  0  0
   11.5770   13.3017   23.6150 C   0  0  0  0  0  0  0  0  0  0  0  0
   11.5010   13.7002   24.7621 O   0  0  0  0  0  0  0  0  0  0  0  0
   10.7171   12.3647   23.0877 N   0  0  0  0  0  0  0  0  0  0  0  0
    9.4734   12.0663   23.6888 C   0  0  0  0  0  0  0  0  0  0  0  0
    8.6768   13.0830   24.1975 C   0  0  0  0  0  0  0  0  0  0  0  0
    7.4883   12.7575   24.8232 C   0  0  0  0  0  0  0  0  0  0  0  0
    7.1682   11.4158   24.9441 C   0  0  0  0  0  0  0  0  0  0  0  0
    5.9459   11.0426   25.7443 C   0  0  0  0  0  0  0  0  0  0  0  0
    5.7571    9.7123   25.8865 N   0  0  0  0  0  0  0  0  0  0  0  0
    5.2243   11.8921   26.2408 O   0  0  0  0  0  0  0  0  0  0  0  0
    7.9093   10.4334   24.4172 N   0  0  0  0  0  0  0  0  0  0  0  0
    9.0275   10.7346   23.7660 C   0  0  0  0  0  0  0  0  0  0  0  0
    9.8076    9.5983   23.1558 C   0  0  0  0  0  0  0  0  0  0  0  0
   11.5810   15.5966   21.2623 N   0  0  0  0  0  0  0  0  0  0  0  0
   11.4312   16.5461   22.3241 C   0  0  0  0  0  0  0  0  0  0  0  0
  1  2  1  0
  2  3  1  0
  3  4  2  0
  4  5  1  0
  5  6  2  0
  6  7  1  0
  7  8  2  0
  7  9  1  0
  9 10  2  0
 10 11  1  0
 11 12  1  0
 12 13  2  0
 12 14  1  0
 14 15  1  0
 15 16  2  0
 16 17  1  0
 17 18  2  0
 18 19  1  0
 19 20  1  0
 19 21  2  0
 18 22  1  0
 22 23  2  0
 23 24  1  0
 10 25  1  0
 25 26  1  0
  8  3  1  0
 23 15  1  0
 25  6  1  0
M  END
>  <ref_pdb>  (26) 
x0554_0A

>  <ref_mols>  (26) 
x0310_0A,x0556_0A

>  <original SMILES>  (26) 
COc1ccc2c(c1)nc(CC(=O)Nc1ccc(C(N)=O)nc1C)n2C

>  <IC50 (nM)>  (26) 
1140.3285559465953

>  <CNNaffinity>  (26) 
5.94297

>  <rationale>  (26) 
-1

$$$$
Z3063658755
     RDKit          3D

 28 31  0  0  0  0  0  0  0  0999 V2000
   10.0916    9.3659   22.5256 C   0  0  0  0  0  0  0  0  0  0  0  0
    9.2781   10.3797   23.2968 C   0  0  0  0  0  0  0  0  0  0  0  0
    8.3023    9.9082   24.0562 N   0  0  0  0  0  0  0  0  0  0  0  0
    7.5339   10.7581   24.7431 C   0  0  0  0  0  0  0  0  0  0  0  0
    6.4978   10.1392   25.6461 C   0  0  0  0  0  0  0  0  0  0  0  0
    5.3207   10.8423   25.6990 N   0  0  0  0  0  0  0  0  0  0  0  0
    6.7045    9.1430   26.3087 O   0  0  0  0  0  0  0  0  0  0  0  0
    7.7079   12.1350   24.6932 C   0  0  0  0  0  0  0  0  0  0  0  0
    8.7507   12.6491   23.9428 C   0  0  0  0  0  0  0  0  0  0  0  0
    9.5575   11.7630   23.2367 C   0  0  0  0  0  0  0  0  0  0  0  0
   10.6367   12.2245   22.4562 N   0  0  0  0  0  0  0  0  0  0  0  0
   11.3683   13.3500   22.7304 C   0  0  0  0  0  0  0  0  0  0  0  0
   11.2569   14.0013   23.7545 O   0  0  0  0  0  0  0  0  0  0  0  0
   12.3403   13.8032   21.6352 C   0  0  0  0  0  0  0  0  0  0  0  0
   11.8593   15.0255   21.0113 N   0  0  0  0  0  0  0  0  0  0  0  0
   11.8717   16.2324   21.6501 C   0  0  0  0  0  0  0  0  0  0  0  0
   11.1572   17.1434   21.0433 N   0  0  0  0  0  0  0  0  0  0  0  0
   10.6892   16.5177   19.9135 C   0  0  0  0  0  0  0  0  0  0  0  0
   11.0610   15.2021   19.9010 C   0  0  0  0  0  0  0  0  0  0  0  0
   10.5339   14.2232   18.9142 C   0  0  0  0  0  0  0  0  0  0  0  0
    9.1768   14.7794   18.4386 C   0  0  0  0  0  0  0  0  0  0  0  0
    9.2237   16.1421   17.9728 N   0  0  0  0  0  0  0  0  0  0  0  0
    9.8254   17.1455   18.8707 C   0  0  0  0  0  0  0  0  0  0  0  0
   10.5572   18.0780   17.9029 C   0  0  0  0  0  0  0  0  0  0  0  0
    9.5553   18.6623   16.9002 C   0  0  0  0  0  0  0  0  0  0  0  0
    8.2325   18.6913   17.3733 O   0  0  0  0  0  0  0  0  0  0  0  0
    8.1751   19.0898   18.7175 C   0  0  0  0  0  0  0  0  0  0  0  0
    8.7936   18.0186   19.6233 C   0  0  0  0  0  0  0  0  0  0  0  0
  1  2  1  0
  2  3  2  0
  3  4  1  0
  4  5  1  0
  5  6  1  0
  5  7  2  0
  4  8  2  0
  8  9  1  0
  9 10  2  0
 10 11  1  0
 11 12  1  0
 12 13  2  0
 12 14  1  0
 14 15  1  0
 15 16  1  0
 16 17  2  0
 17 18  1  0
 18 19  2  0
 19 20  1  0
 20 21  1  0
 21 22  1  0
 22 23  1  0
 23 24  1  0
 24 25  1  0
 25 26  1  0
 26 27  1  0
 27 28  1  0
 10  2  1  0
 19 15  1  0
 28 23  1  0
 23 18  1  0
M  END
>  <ref_pdb>  (27) 
x0554_0A

>  <ref_mols>  (27) 
x0310_0A,x0556_0A

>  <original SMILES>  (27) 
Cc1nc(C(N)=O)ccc1NC(=O)Cn1cnc2c1CCNC21CCOCC1

>  <IC50 (nM)>  (27) 
1147.9950091688872

>  <CNNaffinity>  (27) 
5.94006

>  <rationale>  (27) 
-1

$$$$
PV_002460843922
     RDKit          3D

 26 28  0  0  0  0  0  0  0  0999 V2000
    9.6820    9.0995   23.1723 C   0  0  0  0  0  0  0  0  0  0  0  0
    8.9432   10.2876   23.7297 C   0  0  0  0  0  0  0  0  0  0  0  0
    7.8542   10.0408   24.4523 N   0  0  0  0  0  0  0  0  0  0  0  0
    7.1786   11.0649   24.9854 C   0  0  0  0  0  0  0  0  0  0  0  0
    5.9440   10.7859   25.8101 C   0  0  0  0  0  0  0  0  0  0  0  0
    5.6751    9.4814   26.0532 N   0  0  0  0  0  0  0  0  0  0  0  0
    5.2664   11.7000   26.2512 O   0  0  0  0  0  0  0  0  0  0  0  0
    7.5777   12.3851   24.8399 C   0  0  0  0  0  0  0  0  0  0  0  0
    8.7235   12.6590   24.1127 C   0  0  0  0  0  0  0  0  0  0  0  0
    9.4132   11.6023   23.5270 C   0  0  0  0  0  0  0  0  0  0  0  0
   10.5723   11.8373   22.7380 N   0  0  0  0  0  0  0  0  0  0  0  0
   11.4881   12.8081   23.0510 C   0  0  0  0  0  0  0  0  0  0  0  0
   11.4294   13.4463   24.0882 O   0  0  0  0  0  0  0  0  0  0  0  0
   12.5883   13.1467   22.0343 C   0  0  0  0  0  0  0  0  0  0  0  0
   12.2169   14.3440   21.2708 N   0  0  0  0  0  0  0  0  0  0  0  0
   12.0266   15.5276   21.9583 C   0  0  0  0  0  0  0  0  0  0  0  0
   11.4513   16.5800   21.5086 N   0  0  0  0  0  0  0  0  0  0  0  0
   10.9329   16.4907   20.2189 C   0  0  0  0  0  0  0  0  0  0  0  0
   10.1550   17.5565   19.7330 C   0  0  0  0  0  0  0  0  0  0  0  0
    9.5814   17.4908   18.4848 C   0  0  0  0  0  0  0  0  0  0  0  0
    9.8034   16.3612   17.6853 C   0  0  0  0  0  0  0  0  0  0  0  0
    9.2253   16.3199   16.4749 F   0  0  0  0  0  0  0  0  0  0  0  0
   10.5828   15.3131   18.1108 C   0  0  0  0  0  0  0  0  0  0  0  0
   11.1394   15.3787   19.3934 C   0  0  0  0  0  0  0  0  0  0  0  0
   11.9287   14.2436   19.9009 C   0  0  0  0  0  0  0  0  0  0  0  0
   12.2953   13.2968   19.2341 O   0  0  0  0  0  0  0  0  0  0  0  0
  1  2  1  0
  2  3  2  0
  3  4  1  0
  4  5  1  0
  5  6  1  0
  5  7  2  0
  4  8  2  0
  8  9  1  0
  9 10  2  0
 10 11  1  0
 11 12  1  0
 12 13  2  0
 12 14  1  0
 14 15  1  0
 15 16  1  0
 16 17  2  0
 17 18  1  0
 18 19  2  0
 19 20  1  0
 20 21  2  0
 21 22  1  0
 21 23  1  0
 23 24  2  0
 24 25  1  0
 25 26  2  0
 10  2  1  0
 25 15  1  0
 24 18  1  0
M  END
>  <ref_pdb>  (28) 
x0554_0A

>  <ref_mols>  (28) 
x0310_0A,x0556_0A

>  <original SMILES>  (28) 
Cc1nc(C(N)=O)ccc1NC(=O)Cn1cnc2ccc(F)cc2c1=O

>  <IC50 (nM)>  (28) 
1160.833679806742

>  <CNNaffinity>  (28) 
5.93523

>  <rationale>  (28) 
-1

$$$$
PV_004499153601
     RDKit          3D

 27 29  0  0  0  0  0  0  0  0999 V2000
    9.7243    9.1588   23.3203 C   0  0  0  0  0  0  0  0  0  0  0  0
    8.9362   10.2966   23.9217 C   0  0  0  0  0  0  0  0  0  0  0  0
    7.8354    9.9871   24.6109 N   0  0  0  0  0  0  0  0  0  0  0  0
    7.0873   10.9718   25.1700 C   0  0  0  0  0  0  0  0  0  0  0  0
    5.7872   10.6425   25.9422 C   0  0  0  0  0  0  0  0  0  0  0  0
    5.3869    9.3506   26.1049 N   0  0  0  0  0  0  0  0  0  0  0  0
    5.0988   11.5157   26.4498 O   0  0  0  0  0  0  0  0  0  0  0  0
    7.4513   12.3231   25.0647 C   0  0  0  0  0  0  0  0  0  0  0  0
    8.5793   12.6631   24.3287 C   0  0  0  0  0  0  0  0  0  0  0  0
    9.3388   11.6521   23.7399 C   0  0  0  0  0  0  0  0  0  0  0  0
   10.4672   12.0283   22.9546 N   0  0  0  0  0  0  0  0  0  0  0  0
   10.4453   13.0594   22.0494 C   0  0  0  0  0  0  0  0  0  0  0  0
    9.4021   13.5798   21.6722 O   0  0  0  0  0  0  0  0  0  0  0  0
   11.8795   13.5294   21.5150 C   0  0  0  0  0  0  0  0  0  0  0  0
   12.8670   12.8206   21.6489 O   0  0  0  0  0  0  0  0  0  0  0  0
   11.9291   14.7478   20.8736 N   0  0  0  0  0  0  0  0  0  0  0  0
   12.8879   14.9338   19.8195 C   0  0  0  0  0  0  0  0  0  0  0  0
   10.9988   15.8593   21.1506 C   0  0  1  0  0  0  0  0  0  0  0  0
   11.7721   17.0499   21.6912 C   0  0  0  0  0  0  0  0  0  0  0  0
   10.1009   16.2104   19.9326 C   0  0  1  0  0  0  0  0  0  0  0  0
   10.4295   17.2426   18.8413 C   0  0  0  0  0  0  0  0  0  0  0  0
   10.1260   16.3969   17.8184 C   0  0  0  0  0  0  0  0  0  0  0  0
    9.8782   16.2113   16.3732 C   0  0  0  0  0  0  0  0  0  0  0  0
    9.7823   14.7799   16.0325 C   0  0  0  0  0  0  0  0  0  0  0  0
    9.8941   13.7484   16.9379 C   0  0  0  0  0  0  0  0  0  0  0  0
   10.1164   13.9878   18.3111 C   0  0  0  0  0  0  0  0  0  0  0  0
   10.0567   15.2966   18.7072 C   0  0  0  0  0  0  0  0  0  0  0  0
  1  2  1  0
  2  3  2  0
  3  4  1  0
  4  5  1  0
  5  6  1  0
  5  7  2  0
  4  8  2  0
  8  9  1  0
  9 10  2  0
 10 11  1  0
 11 12  1  0
 12 13  2  0
 12 14  1  0
 14 15  2  0
 14 16  1  0
 16 17  1  0
 16 18  1  0
 18 19  1  6
 18 20  1  0
 20 21  1  6
 21 22  1  0
 22 23  2  0
 23 24  1  0
 24 25  2  0
 25 26  1  0
 26 27  2  0
 10  2  1  0
 27 20  1  0
 27 22  1  0
M  END
>  <ref_pdb>  (29) 
x0554_0A

>  <ref_mols>  (29) 
x0310_0A,x0556_0A

>  <original SMILES>  (29) 
Cc1nc(C(N)=O)ccc1NC(=O)C(=O)N(C)[C@@H](C)[C@H]1Cc2ccccc21

>  <IC50 (nM)>  (29) 
1167.29331941047

>  <CNNaffinity>  (29) 
5.93282

>  <rationale>  (29) 
-1

$$$$
PV_002404918257
     RDKit          3D

 26 28  0  0  0  0  0  0  0  0999 V2000
    9.2822   17.6046   16.2993 C   0  0  0  0  0  0  0  0  0  0  0  0
    9.6034   16.2889   16.9604 C   0  0  0  0  0  0  0  0  0  0  0  0
    9.3417   15.0838   16.3015 C   0  0  0  0  0  0  0  0  0  0  0  0
    9.6936   13.8678   16.8737 C   0  0  0  0  0  0  0  0  0  0  0  0
   10.3405   13.8441   18.1021 C   0  0  0  0  0  0  0  0  0  0  0  0
   10.5939   15.0332   18.7830 C   0  0  0  0  0  0  0  0  0  0  0  0
   11.3452   14.9377   20.0462 C   0  0  0  0  0  0  0  0  0  0  0  0
   11.5787   13.8113   20.6609 N   0  0  0  0  0  0  0  0  0  0  0  0
   12.3975   13.9928   21.7521 C   0  0  0  0  0  0  0  0  0  0  0  0
   12.7816   12.8220   22.6103 C   0  0  0  0  0  0  0  0  0  0  0  0
   11.6875   12.3939   23.5885 C   0  0  0  0  0  0  0  0  0  0  0  0
   11.8105   12.4665   24.7944 O   0  0  0  0  0  0  0  0  0  0  0  0
   10.5816   11.8679   22.9656 N   0  0  0  0  0  0  0  0  0  0  0  0
    9.3739   11.6543   23.6840 C   0  0  0  0  0  0  0  0  0  0  0  0
    8.6712   12.7342   24.2025 C   0  0  0  0  0  0  0  0  0  0  0  0
    7.4809   12.5029   24.8762 C   0  0  0  0  0  0  0  0  0  0  0  0
    7.0616   11.1880   25.0204 C   0  0  0  0  0  0  0  0  0  0  0  0
    5.7990   10.9034   25.8004 C   0  0  0  0  0  0  0  0  0  0  0  0
    5.4839    9.5927   25.9267 N   0  0  0  0  0  0  0  0  0  0  0  0
    5.1390   11.8110   26.2821 O   0  0  0  0  0  0  0  0  0  0  0  0
    7.7425   10.1468   24.5272 N   0  0  0  0  0  0  0  0  0  0  0  0
    8.8707   10.3558   23.8545 C   0  0  0  0  0  0  0  0  0  0  0  0
    9.5903    9.1544   23.2923 C   0  0  0  0  0  0  0  0  0  0  0  0
   12.7895   15.2769   21.9692 C   0  0  0  0  0  0  0  0  0  0  0  0
   12.0644   16.3096   20.8133 S   0  0  0  0  0  0  0  0  0  0  0  0
   10.1939   16.2530   18.2225 C   0  0  0  0  0  0  0  0  0  0  0  0
  1  2  1  0
  2  3  2  0
  3  4  1  0
  4  5  2  0
  5  6  1  0
  6  7  1  0
  7  8  2  0
  8  9  1  0
  9 10  1  0
 10 11  1  0
 11 12  2  0
 11 13  1  0
 13 14  1  0
 14 15  2  0
 15 16  1  0
 16 17  2  0
 17 18  1  0
 18 19  1  0
 18 20  2  0
 17 21  1  0
 21 22  2  0
 22 23  1  0
  9 24  2  0
 24 25  1  0
  6 26  2  0
 26  2  1  0
 25  7  1  0
 22 14  1  0
M  END
>  <ref_pdb>  (30) 
x0554_0A

>  <ref_mols>  (30) 
x0310_0A,x0556_0A

>  <original SMILES>  (30) 
Cc1cccc(-c2nc(CC(=O)Nc3ccc(C(N)=O)nc3C)cs2)c1

>  <IC50 (nM)>  (30) 
1175.3034202653232

>  <CNNaffinity>  (30) 
5.92985

>  <rationale>  (30) 
-1

$$$$
PV_005204095633
     RDKit          3D

 27 29  0  0  0  0  0  0  0  0999 V2000
    9.6318    9.2588   23.2483 C   0  0  0  0  0  0  0  0  0  0  0  0
    8.8527   10.3700   23.9071 C   0  0  0  0  0  0  0  0  0  0  0  0
    7.7645   10.0083   24.5933 N   0  0  0  0  0  0  0  0  0  0  0  0
    7.0172   10.9432   25.2286 C   0  0  0  0  0  0  0  0  0  0  0  0
    5.7136   10.5647   25.9819 C   0  0  0  0  0  0  0  0  0  0  0  0
    5.3577    9.2557   26.1283 N   0  0  0  0  0  0  0  0  0  0  0  0
    4.9969   11.4083   26.4947 O   0  0  0  0  0  0  0  0  0  0  0  0
    7.3937   12.2927   25.2249 C   0  0  0  0  0  0  0  0  0  0  0  0
    8.5071   12.6942   24.4956 C   0  0  0  0  0  0  0  0  0  0  0  0
    9.2447   11.7399   23.7922 C   0  0  0  0  0  0  0  0  0  0  0  0
   10.3351   12.1849   22.9817 N   0  0  0  0  0  0  0  0  0  0  0  0
   10.3219   13.3532   22.2508 C   0  0  0  0  0  0  0  0  0  0  0  0
    9.3235   14.0508   22.1610 O   0  0  0  0  0  0  0  0  0  0  0  0
   11.6763   13.7723   21.4911 C   0  0  0  0  0  0  0  0  0  0  0  0
   12.6151   13.0115   21.3215 O   0  0  0  0  0  0  0  0  0  0  0  0
   11.6958   15.0732   21.0061 N   0  0  0  0  0  0  0  0  0  0  0  0
   11.1659   16.2254   21.7404 C   0  0  0  0  0  0  0  0  0  0  0  0
    9.9985   16.8665   21.0016 C   0  0  0  0  0  0  0  0  0  0  0  0
   10.5030   17.5103   19.3862 S   0  0  0  0  0  0  0  0  0  0  0  0
   11.3524   16.0357   18.6790 C   0  0  2  0  0  0  0  0  0  0  0  0
   10.4022   15.1027   17.9205 C   0  0  0  0  0  0  0  0  0  0  0  0
    9.5479   15.6723   16.9535 C   0  0  0  0  0  0  0  0  0  0  0  0
    8.7035   14.8802   16.1807 C   0  0  0  0  0  0  0  0  0  0  0  0
    8.6750   13.4970   16.3545 C   0  0  0  0  0  0  0  0  0  0  0  0
    9.5443   12.9147   17.2699 C   0  0  0  0  0  0  0  0  0  0  0  0
   10.3862   13.7074   18.0656 C   0  0  0  0  0  0  0  0  0  0  0  0
   12.3116   15.4047   19.7181 C   0  0  0  0  0  0  0  0  0  0  0  0
  1  2  1  0
  2  3  2  0
  3  4  1  0
  4  5  1  0
  5  6  1  0
  5  7  2  0
  4  8  2  0
  8  9  1  0
  9 10  2  0
 10 11  1  0
 11 12  1  0
 12 13  2  0
 12 14  1  0
 14 15  2  0
 14 16  1  0
 16 17  1  0
 17 18  1  0
 18 19  1  0
 19 20  1  0
 20 21  1  1
 21 22  2  0
 22 23  1  0
 23 24  2  0
 24 25  1  0
 25 26  2  0
 20 27  1  0
 10  2  1  0
 27 16  1  0
 26 21  1  0
M  END
>  <ref_pdb>  (31) 
x0554_0A

>  <ref_mols>  (31) 
x0310_0A,x0556_0A

>  <original SMILES>  (31) 
Cc1nc(C(N)=O)ccc1NC(=O)C(=O)N1CCS[C@H](c2ccccc2)C1

>  <IC50 (nM)>  (31) 
1184.3770953927472

>  <CNNaffinity>  (31) 
5.92651

>  <rationale>  (31) 
-1

$$$$
PV_003457488903
     RDKit          3D

 26 28  0  0  0  0  0  0  0  0999 V2000
    9.5995    9.2099   23.3013 C   0  0  0  0  0  0  0  0  0  0  0  0
    8.8979   10.4073   23.8846 C   0  0  0  0  0  0  0  0  0  0  0  0
    7.7910   10.1963   24.5777 N   0  0  0  0  0  0  0  0  0  0  0  0
    7.0960   11.2409   25.0455 C   0  0  0  0  0  0  0  0  0  0  0  0
    5.8822   10.9360   25.8896 C   0  0  0  0  0  0  0  0  0  0  0  0
    5.6070    9.6162   26.0038 N   0  0  0  0  0  0  0  0  0  0  0  0
    5.2287   11.8178   26.4213 O   0  0  0  0  0  0  0  0  0  0  0  0
    7.4490   12.5576   24.7892 C   0  0  0  0  0  0  0  0  0  0  0  0
    8.6065   12.7992   24.0618 C   0  0  0  0  0  0  0  0  0  0  0  0
    9.3766   11.7135   23.6701 C   0  0  0  0  0  0  0  0  0  0  0  0
   10.6487   11.8784   23.0836 N   0  0  0  0  0  0  0  0  0  0  0  0
   10.9973   12.9135   22.2561 C   0  0  0  0  0  0  0  0  0  0  0  0
   10.1816   13.6503   21.7294 O   0  0  0  0  0  0  0  0  0  0  0  0
   12.4919   13.1191   22.1119 C   0  0  0  0  0  0  0  0  0  0  0  0
   12.9702   14.0890   23.2062 C   0  0  0  0  0  0  0  0  0  0  0  0
   12.9123   13.5444   24.5489 N   0  0  0  0  0  0  0  0  0  0  0  0
   11.9388   13.7858   25.4855 C   0  0  0  0  0  0  0  0  0  0  0  0
   12.1866   13.2967   26.6674 N   0  0  0  0  0  0  0  0  0  0  0  0
   13.4206   12.6902   26.5244 C   0  0  0  0  0  0  0  0  0  0  0  0
   13.8796   12.8088   25.2036 C   0  0  0  0  0  0  0  0  0  0  0  0
   15.0751   12.2329   24.7701 C   0  0  0  0  0  0  0  0  0  0  0  0
   15.7908   11.5330   25.7191 C   0  0  0  0  0  0  0  0  0  0  0  0
   16.9071   10.8743   25.3897 F   0  0  0  0  0  0  0  0  0  0  0  0
   15.3793   11.4649   27.0616 C   0  0  0  0  0  0  0  0  0  0  0  0
   16.1722   10.8199   27.9259 F   0  0  0  0  0  0  0  0  0  0  0  0
   14.1982   12.0290   27.4811 C   0  0  0  0  0  0  0  0  0  0  0  0
  1  2  1  0
  2  3  2  0
  3  4  1  0
  4  5  1  0
  5  6  1  0
  5  7  2  0
  4  8  2  0
  8  9  1  0
  9 10  2  0
 10 11  1  0
 11 12  1  0
 12 13  2  0
 12 14  1  0
 14 15  1  0
 15 16  1  0
 16 17  1  0
 17 18  2  0
 18 19  1  0
 19 20  2  0
 20 21  1  0
 21 22  2  0
 22 23  1  0
 22 24  1  0
 24 25  1  0
 24 26  2  0
 10  2  1  0
 20 16  1  0
 26 19  1  0
M  END
>  <ref_pdb>  (32) 
x0554_0A

>  <ref_mols>  (32) 
x0310_0A,x0556_0A

>  <original SMILES>  (32) 
Cc1nc(C(N)=O)ccc1NC(=O)CCn1cnc2cc(F)c(F)cc21

>  <IC50 (nM)>  (32) 
1194.8406790678075

>  <CNNaffinity>  (32) 
5.92269

>  <rationale>  (32) 
-1

$$$$
PV_004765057047
     RDKit          3D

 26 28  0  0  0  0  0  0  0  0999 V2000
    9.5995    9.2187   23.3127 C   0  0  0  0  0  0  0  0  0  0  0  0
    8.8552   10.3678   23.9473 C   0  0  0  0  0  0  0  0  0  0  0  0
    7.7652   10.0713   24.6482 N   0  0  0  0  0  0  0  0  0  0  0  0
    7.0556   11.0589   25.2095 C   0  0  0  0  0  0  0  0  0  0  0  0
    5.8035   10.7197   25.9793 C   0  0  0  0  0  0  0  0  0  0  0  0
    5.5466    9.3995   26.0942 N   0  0  0  0  0  0  0  0  0  0  0  0
    5.1023   11.5912   26.4675 O   0  0  0  0  0  0  0  0  0  0  0  0
    7.4163   12.3949   25.1285 C   0  0  0  0  0  0  0  0  0  0  0  0
    8.5379   12.7218   24.3929 C   0  0  0  0  0  0  0  0  0  0  0  0
    9.2686   11.7045   23.7902 C   0  0  0  0  0  0  0  0  0  0  0  0
   10.4019   12.0275   23.0090 N   0  0  0  0  0  0  0  0  0  0  0  0
   10.4095   13.0748   22.1470 C   0  0  0  0  0  0  0  0  0  0  0  0
    9.4119   13.6746   21.7858 O   0  0  0  0  0  0  0  0  0  0  0  0
   11.8273   13.4135   21.6303 C   0  0  0  0  0  0  0  0  0  0  0  0
   12.7543   12.6460   21.8494 O   0  0  0  0  0  0  0  0  0  0  0  0
   11.9294   14.5689   20.9336 N   0  0  0  0  0  0  0  0  0  0  0  0
   13.0617   14.7507   20.0429 C   0  0  0  0  0  0  0  0  0  0  0  0
   12.7050   15.5643   18.8169 C   0  0  0  0  0  0  0  0  0  0  0  0
   11.5341   15.0304   18.0247 C   0  0  0  0  0  0  0  0  0  0  0  0
   10.1787   15.0453   18.7524 C   0  0  2  0  0  0  0  0  0  0  0  0
    9.0726   15.4761   17.7967 C   0  0  0  0  0  0  0  0  0  0  0  0
    9.1043   16.9986   17.4920 C   0  0  0  0  0  0  0  0  0  0  0  0
    8.7735   16.7179   16.0305 C   0  0  0  0  0  0  0  0  0  0  0  0
    9.0840   15.2159   16.2656 C   0  0  0  0  0  0  0  0  0  0  0  0
   10.0614   15.9600   19.9967 C   0  0  0  0  0  0  0  0  0  0  0  0
   11.0821   15.7314   21.1249 C   0  0  0  0  0  0  0  0  0  0  0  0
  1  2  1  0
  2  3  2  0
  3  4  1  0
  4  5  1  0
  5  6  1  0
  5  7  2  0
  4  8  2  0
  8  9  1  0
  9 10  2  0
 10 11  1  0
 11 12  1  0
 12 13  2  0
 12 14  1  0
 14 15  2  0
 14 16  1  0
 16 17  1  0
 17 18  1  0
 18 19  1  0
 19 20  1  0
 20 21  1  6
 21 22  1  0
 22 23  1  0
 23 24  1  0
 20 25  1  0
 25 26  1  0
 10  2  1  0
 26 16  1  0
 24 21  1  0
M  END
>  <ref_pdb>  (33) 
x0554_0A

>  <ref_mols>  (33) 
x0310_0A,x0556_0A

>  <original SMILES>  (33) 
Cc1nc(C(N)=O)ccc1NC(=O)C(=O)N1CCC[C@H](C2CCC2)CC1

>  <IC50 (nM)>  (33) 
1206.0352456973912

>  <CNNaffinity>  (33) 
5.91864

>  <rationale>  (33) 
-1

$$$$
PV_003347859838
     RDKit          3D

 26 28  0  0  0  0  0  0  0  0999 V2000
    9.7577    9.3857   23.3765 C   0  0  0  0  0  0  0  0  0  0  0  0
    8.8775   10.5010   23.8776 C   0  0  0  0  0  0  0  0  0  0  0  0
    7.8044   10.1583   24.5712 N   0  0  0  0  0  0  0  0  0  0  0  0
    6.9908   11.1103   25.0416 C   0  0  0  0  0  0  0  0  0  0  0  0
    5.7987   10.6319   25.8399 C   0  0  0  0  0  0  0  0  0  0  0  0
    5.5241   11.4024   26.9424 N   0  0  0  0  0  0  0  0  0  0  0  0
    5.1238    9.6732   25.5302 O   0  0  0  0  0  0  0  0  0  0  0  0
    7.2088   12.4631   24.8028 C   0  0  0  0  0  0  0  0  0  0  0  0
    8.3140   12.8353   24.0550 C   0  0  0  0  0  0  0  0  0  0  0  0
    9.1770   11.8507   23.5922 C   0  0  0  0  0  0  0  0  0  0  0  0
   10.3470   12.1804   22.8685 N   0  0  0  0  0  0  0  0  0  0  0  0
   10.4110   13.2017   21.9448 C   0  0  0  0  0  0  0  0  0  0  0  0
    9.4060   13.7566   21.5337 O   0  0  0  0  0  0  0  0  0  0  0  0
   11.8118   13.6442   21.4986 C   0  0  2  0  0  0  0  0  0  0  0  0
   12.3699   14.7144   22.4524 C   0  0  0  0  0  0  0  0  0  0  0  0
   11.4038   15.8933   22.5305 C   0  0  0  0  0  0  0  0  0  0  0  0
   10.9249   16.2928   21.1743 C   0  0  0  0  0  0  0  0  0  0  0  0
   10.2372   17.3653   20.8903 N   0  0  0  0  0  0  0  0  0  0  0  0
    9.9443   17.3128   19.5517 N   0  0  0  0  0  0  0  0  0  0  0  0
   10.4586   16.2118   19.0672 C   0  0  0  0  0  0  0  0  0  0  0  0
   10.3171   15.7964   17.6250 C   0  0  0  0  0  0  0  0  0  0  0  0
    9.7396   16.9952   16.8553 C   0  0  0  0  0  0  0  0  0  0  0  0
    9.3610   14.5974   17.4852 C   0  0  0  0  0  0  0  0  0  0  0  0
   11.6712   15.3975   17.0253 C   0  0  0  0  0  0  0  0  0  0  0  0
   11.1101   15.5265   20.0596 N   0  0  0  0  0  0  0  0  0  0  0  0
   11.7431   14.2014   20.0669 C   0  0  0  0  0  0  0  0  0  0  0  0
  1  2  1  0
  2  3  2  0
  3  4  1  0
  4  5  1  0
  5  6  1  0
  5  7  2  0
  4  8  2  0
  8  9  1  0
  9 10  2  0
 10 11  1  0
 11 12  1  0
 12 13  2  0
 14 12  1  1
 14 15  1  0
 15 16  1  0
 16 17  1  0
 17 18  2  0
 18 19  1  0
 19 20  2  0
 20 21  1  0
 21 22  1  0
 21 23  1  0
 21 24  1  0
 20 25  1  0
 25 26  1  0
 10  2  1  0
 26 14  1  0
 25 17  1  0
M  END
>  <ref_pdb>  (34) 
x0554_0A

>  <ref_mols>  (34) 
x0310_0A,x0556_0A

>  <original SMILES>  (34) 
Cc1nc(C(N)=O)ccc1NC(=O)[C@@H]1CCc2nnc(C(C)(C)C)n2C1

>  <IC50 (nM)>  (34) 
1206.4796473587155

>  <CNNaffinity>  (34) 
5.91848

>  <rationale>  (34) 
-1

$$$$
PV_003105193606
     RDKit          3D

 25 27  0  0  0  0  0  0  0  0999 V2000
    9.6274    9.1476   23.2374 C   0  0  0  0  0  0  0  0  0  0  0  0
    8.9129   10.3575   23.7921 C   0  0  0  0  0  0  0  0  0  0  0  0
    7.8023   10.1303   24.4887 N   0  0  0  0  0  0  0  0  0  0  0  0
    7.1154   11.1575   25.0025 C   0  0  0  0  0  0  0  0  0  0  0  0
    5.8824   10.8748   25.8270 C   0  0  0  0  0  0  0  0  0  0  0  0
    5.6363    9.5616   26.0236 N   0  0  0  0  0  0  0  0  0  0  0  0
    5.2036   11.7785   26.2888 O   0  0  0  0  0  0  0  0  0  0  0  0
    7.4970   12.4769   24.8359 C   0  0  0  0  0  0  0  0  0  0  0  0
    8.6630   12.7318   24.1350 C   0  0  0  0  0  0  0  0  0  0  0  0
    9.3912   11.6692   23.6112 C   0  0  0  0  0  0  0  0  0  0  0  0
   10.6109   11.9055   22.9209 N   0  0  0  0  0  0  0  0  0  0  0  0
   11.5830   12.7191   23.4560 C   0  0  0  0  0  0  0  0  0  0  0  0
   11.5981   13.0461   24.6259 O   0  0  0  0  0  0  0  0  0  0  0  0
   12.6434   13.2003   22.4652 C   0  0  0  0  0  0  0  0  0  0  0  0
   12.0771   14.2127   21.5103 C   0  0  0  0  0  0  0  0  0  0  0  0
   11.9503   15.5457   21.7381 C   0  0  0  0  0  0  0  0  0  0  0  0
   11.0996   16.2914   20.4334 S   0  0  0  0  0  0  0  0  0  0  0  0
   11.0294   14.7457   19.6365 C   0  0  0  0  0  0  0  0  0  0  0  0
   10.4858   14.5656   18.2488 C   0  0  0  0  0  0  0  0  0  0  0  0
   11.5111   15.0732   17.2201 C   0  0  0  0  0  0  0  0  0  0  0  0
   10.8416   15.1836   15.8647 C   0  0  0  0  0  0  0  0  0  0  0  0
    9.8502   16.2595   15.8826 N   0  0  0  0  0  0  0  0  0  0  0  0
    9.2078   16.4786   17.1774 C   0  0  0  0  0  0  0  0  0  0  0  0
    9.1023   15.2017   18.0197 C   0  0  0  0  0  0  0  0  0  0  0  0
   11.5511   13.7731   20.3152 N   0  0  0  0  0  0  0  0  0  0  0  0
  1  2  1  0
  2  3  2  0
  3  4  1  0
  4  5  1  0
  5  6  1  0
  5  7  2  0
  4  8  2  0
  8  9  1  0
  9 10  2  0
 10 11  1  0
 11 12  1  0
 12 13  2  0
 12 14  1  0
 14 15  1  0
 15 16  2  0
 16 17  1  0
 17 18  1  0
 18 19  1  0
 19 20  1  0
 20 21  1  0
 21 22  1  0
 22 23  1  0
 23 24  1  0
 18 25  2  0
 10  2  1  0
 25 15  1  0
 24 19  1  0
M  END
>  <ref_pdb>  (35) 
x0554_0A

>  <ref_mols>  (35) 
x0310_0A,x0556_0A

>  <original SMILES>  (35) 
Cc1nc(C(N)=O)ccc1NC(=O)Cc1csc(C2CCNCC2)n1

>  <IC50 (nM)>  (35) 
1210.7375168346714

>  <CNNaffinity>  (35) 
5.91695

>  <rationale>  (35) 
-1

$$$$
PV_002177526071
     RDKit          3D

 26 28  0  0  0  0  0  0  0  0999 V2000
    9.6814    9.0788   23.1900 C   0  0  0  0  0  0  0  0  0  0  0  0
    8.9453   10.2637   23.7612 C   0  0  0  0  0  0  0  0  0  0  0  0
    7.8407   10.0219   24.4605 N   0  0  0  0  0  0  0  0  0  0  0  0
    7.1634   11.0484   24.9908 C   0  0  0  0  0  0  0  0  0  0  0  0
    5.9241   10.7683   25.8137 C   0  0  0  0  0  0  0  0  0  0  0  0
    5.6666    9.4623   26.0650 N   0  0  0  0  0  0  0  0  0  0  0  0
    5.2356   11.6741   26.2519 O   0  0  0  0  0  0  0  0  0  0  0  0
    7.5664   12.3692   24.8495 C   0  0  0  0  0  0  0  0  0  0  0  0
    8.7393   12.6360   24.1675 C   0  0  0  0  0  0  0  0  0  0  0  0
    9.4363   11.5780   23.6010 C   0  0  0  0  0  0  0  0  0  0  0  0
   10.6270   11.8231   22.8757 N   0  0  0  0  0  0  0  0  0  0  0  0
   11.5157   12.8173   23.1918 C   0  0  0  0  0  0  0  0  0  0  0  0
   11.4054   13.5241   24.1772 O   0  0  0  0  0  0  0  0  0  0  0  0
   12.6403   13.0419   22.1860 C   0  0  0  0  0  0  0  0  0  0  0  0
   12.1757   13.9344   21.0738 C   0  0  0  0  0  0  0  0  0  0  0  0
   11.4406   15.0952   21.1509 C   0  0  0  0  0  0  0  0  0  0  0  0
   11.1206   15.9489   22.3296 C   0  0  0  0  0  0  0  0  0  0  0  0
   11.1327   15.3782   19.8482 N   0  0  0  0  0  0  0  0  0  0  0  0
   10.3350   16.4192   19.2788 C   0  0  0  0  0  0  0  0  0  0  0  0
    9.3834   17.0920   20.0476 C   0  0  0  0  0  0  0  0  0  0  0  0
    8.7228   18.1895   19.5112 C   0  0  0  0  0  0  0  0  0  0  0  0
    8.9483   18.5870   18.2010 C   0  0  0  0  0  0  0  0  0  0  0  0
    9.8291   17.8522   17.4122 C   0  0  0  0  0  0  0  0  0  0  0  0
   10.5100   16.7598   17.9378 C   0  0  0  0  0  0  0  0  0  0  0  0
   11.7369   14.4937   19.0321 N   0  0  0  0  0  0  0  0  0  0  0  0
   12.3606   13.6311   19.7600 N   0  0  0  0  0  0  0  0  0  0  0  0
  1  2  1  0
  2  3  2  0
  3  4  1  0
  4  5  1  0
  5  6  1  0
  5  7  2  0
  4  8  2  0
  8  9  1  0
  9 10  2  0
 10 11  1  0
 11 12  1  0
 12 13  2  0
 12 14  1  0
 14 15  1  0
 15 16  2  0
 16 17  1  0
 16 18  1  0
 18 19  1  0
 19 20  2  0
 20 21  1  0
 21 22  2  0
 22 23  1  0
 23 24  2  0
 18 25  1  0
 25 26  2  0
 10  2  1  0
 26 15  1  0
 24 19  1  0
M  END
>  <ref_pdb>  (36) 
x0554_0A

>  <ref_mols>  (36) 
x0310_0A,x0556_0A

>  <original SMILES>  (36) 
Cc1nc(C(N)=O)ccc1NC(=O)Cc1nnn(-c2ccccc2)c1C

>  <IC50 (nM)>  (36) 
1227.6653546466086

>  <CNNaffinity>  (36) 
5.91092

>  <rationale>  (36) 
-1

$$$$
PV_006832657594
     RDKit          3D

 26 27  0  0  0  0  0  0  0  0999 V2000
    9.7110    9.0438   23.1716 C   0  0  0  0  0  0  0  0  0  0  0  0
    8.9742   10.2211   23.7644 C   0  0  0  0  0  0  0  0  0  0  0  0
    7.8696    9.9694   24.4662 N   0  0  0  0  0  0  0  0  0  0  0  0
    7.1742   10.9881   24.9879 C   0  0  0  0  0  0  0  0  0  0  0  0
    5.9322   10.7251   25.8089 C   0  0  0  0  0  0  0  0  0  0  0  0
    5.6421    9.4274   26.0551 N   0  0  0  0  0  0  0  0  0  0  0  0
    5.2675   11.6514   26.2484 O   0  0  0  0  0  0  0  0  0  0  0  0
    7.5544   12.3122   24.8371 C   0  0  0  0  0  0  0  0  0  0  0  0
    8.7242   12.5865   24.1579 C   0  0  0  0  0  0  0  0  0  0  0  0
    9.4503   11.5389   23.6069 C   0  0  0  0  0  0  0  0  0  0  0  0
   10.6504   11.8113   22.9015 N   0  0  0  0  0  0  0  0  0  0  0  0
   11.4946   12.8205   23.2970 C   0  0  0  0  0  0  0  0  0  0  0  0
   11.4127   13.3752   24.3763 O   0  0  0  0  0  0  0  0  0  0  0  0
   12.5738   13.2276   22.2910 C   0  0  0  0  0  0  0  0  0  0  0  0
   12.0823   13.4018   20.9795 O   0  0  0  0  0  0  0  0  0  0  0  0
   11.1528   14.3685   20.7351 C   0  0  0  0  0  0  0  0  0  0  0  0
   10.7203   15.3164   21.6592 C   0  0  0  0  0  0  0  0  0  0  0  0
    9.9206   16.3598   21.2080 C   0  0  0  0  0  0  0  0  0  0  0  0
    9.5047   16.4303   19.8840 C   0  0  0  0  0  0  0  0  0  0  0  0
    8.7188   17.9119   19.4157 Cl  0  0  0  0  0  0  0  0  0  0  0  0
    9.7894   15.3747   19.0018 C   0  0  0  0  0  0  0  0  0  0  0  0
    9.1729   15.1733   17.6291 C   0  0  0  0  0  0  0  0  0  0  0  0
    9.9326   14.3471   16.8849 F   0  0  0  0  0  0  0  0  0  0  0  0
    7.9595   14.5905   17.7213 F   0  0  0  0  0  0  0  0  0  0  0  0
    9.0264   16.3048   16.9297 F   0  0  0  0  0  0  0  0  0  0  0  0
   10.6410   14.3690   19.4413 C   0  0  0  0  0  0  0  0  0  0  0  0
  1  2  1  0
  2  3  2  0
  3  4  1  0
  4  5  1  0
  5  6  1  0
  5  7  2  0
  4  8  2  0
  8  9  1  0
  9 10  2  0
 10 11  1  0
 11 12  1  0
 12 13  2  0
 12 14  1  0
 14 15  1  0
 15 16  1  0
 16 17  2  0
 17 18  1  0
 18 19  2  0
 19 20  1  0
 19 21  1  0
 21 22  1  0
 22 23  1  0
 22 24  1  0
 22 25  1  0
 21 26  2  0
 10  2  1  0
 26 16  1  0
M  END
>  <ref_pdb>  (37) 
x0554_0A

>  <ref_mols>  (37) 
x0310_0A,x0556_0A

>  <original SMILES>  (37) 
Cc1nc(C(N)=O)ccc1NC(=O)COc1ccc(Cl)c(C(F)(F)F)c1

>  <IC50 (nM)>  (37) 
1239.2815953240445

>  <CNNaffinity>  (37) 
5.90683

>  <rationale>  (37) 
-1

$$$$
PV_004689147335
     RDKit          3D

 26 28  0  0  0  0  0  0  0  0999 V2000
    8.3592   19.2226   17.7787 C   0  0  0  0  0  0  0  0  0  0  0  0
    9.3104   17.9054   17.2538 C   0  0  0  0  0  0  0  0  0  0  0  0
    9.3800   16.9324   18.3835 C   0  0  2  0  0  0  0  0  0  0  0  0
    9.3090   15.4875   18.1224 C   0  0  0  0  0  0  0  0  0  0  0  0
    9.8624   14.6000   19.2860 C   0  0  0  0  0  0  0  0  0  0  0  0
   11.0020   15.3619   19.9406 C   0  0  2  0  0  0  0  0  0  0  0  0
   10.4583   16.6081   20.6387 C   0  0  0  0  0  0  0  0  0  0  0  0
    9.3667   17.3182   19.7558 C   0  0  0  0  0  0  0  0  0  0  0  0
   12.1767   15.5697   18.9506 C   0  0  0  0  0  0  0  0  0  0  0  0
   13.0970   14.8505   19.9347 C   0  0  0  0  0  0  0  0  0  0  0  0
   11.9463   14.5964   20.7984 N   0  0  0  0  0  0  0  0  0  0  0  0
   11.8323   13.5461   21.6402 C   0  0  0  0  0  0  0  0  0  0  0  0
   12.7263   12.7433   21.8661 O   0  0  0  0  0  0  0  0  0  0  0  0
   10.4651   13.4149   22.3630 C   0  0  0  0  0  0  0  0  0  0  0  0
    9.5849   14.2576   22.3105 O   0  0  0  0  0  0  0  0  0  0  0  0
   10.3668   12.2518   23.0536 N   0  0  0  0  0  0  0  0  0  0  0  0
    9.2511   11.9021   23.8458 C   0  0  0  0  0  0  0  0  0  0  0  0
    8.5251   12.8867   24.5024 C   0  0  0  0  0  0  0  0  0  0  0  0
    7.4067   12.5200   25.2249 C   0  0  0  0  0  0  0  0  0  0  0  0
    7.0563   11.1799   25.2647 C   0  0  0  0  0  0  0  0  0  0  0  0
    5.8276   10.7899   26.0500 C   0  0  0  0  0  0  0  0  0  0  0  0
    5.5827    9.4622   26.1037 N   0  0  0  0  0  0  0  0  0  0  0  0
    5.1368   11.6288   26.6062 O   0  0  0  0  0  0  0  0  0  0  0  0
    7.7721   10.2214   24.6657 N   0  0  0  0  0  0  0  0  0  0  0  0
    8.8584   10.5545   23.9776 C   0  0  0  0  0  0  0  0  0  0  0  0
    9.6401    9.4400   23.3348 C   0  0  0  0  0  0  0  0  0  0  0  0
  1  2  1  0
  3  2  1  6
  3  4  1  0
  4  5  1  0
  6  5  1  6
  6  7  1  0
  7  8  1  0
  6  9  1  0
  9 10  1  0
 10 11  1  0
 11 12  1  0
 12 13  2  0
 12 14  1  0
 14 15  2  0
 14 16  1  0
 16 17  1  0
 17 18  2  0
 18 19  1  0
 19 20  2  0
 20 21  1  0
 21 22  1  0
 21 23  2  0
 20 24  1  0
 24 25  2  0
 25 26  1  0
  8  3  1  0
 25 17  1  0
 11  6  1  0
M  END
>  <ref_pdb>  (38) 
x0554_0A

>  <ref_mols>  (38) 
x0310_0A,x0556_0A

>  <original SMILES>  (38) 
CC[C@H]1CC[C@]2(CCN2C(=O)C(=O)Nc2ccc(C(N)=O)nc2C)CC1

>  <IC50 (nM)>  (38) 
1260.259558353952

>  <CNNaffinity>  (38) 
5.89954

>  <rationale>  (38) 
-1

$$$$
PV_004236478451
     RDKit          3D

 26 28  0  0  0  0  0  0  0  0999 V2000
    9.7127    9.5091   23.2009 C   0  0  0  0  0  0  0  0  0  0  0  0
    8.9295   10.6428   23.8106 C   0  0  0  0  0  0  0  0  0  0  0  0
    7.8641   10.3112   24.5341 N   0  0  0  0  0  0  0  0  0  0  0  0
    7.1432   11.2705   25.1268 C   0  0  0  0  0  0  0  0  0  0  0  0
    5.9364   10.8788   25.9494 C   0  0  0  0  0  0  0  0  0  0  0  0
    5.7475    9.5454   26.0707 N   0  0  0  0  0  0  0  0  0  0  0  0
    5.2180   11.7156   26.4721 O   0  0  0  0  0  0  0  0  0  0  0  0
    7.4692   12.6129   25.0332 C   0  0  0  0  0  0  0  0  0  0  0  0
    8.5570   12.9794   24.2608 C   0  0  0  0  0  0  0  0  0  0  0  0
    9.2997   11.9920   23.6246 C   0  0  0  0  0  0  0  0  0  0  0  0
   10.4149   12.3367   22.8178 N   0  0  0  0  0  0  0  0  0  0  0  0
   10.5278   13.5042   22.1257 C   0  0  0  0  0  0  0  0  0  0  0  0
    9.6508   14.3460   22.0346 O   0  0  0  0  0  0  0  0  0  0  0  0
   11.8844   13.6694   21.3738 C   0  0  0  0  0  0  0  0  0  0  0  0
   12.7510   12.8165   21.4545 O   0  0  0  0  0  0  0  0  0  0  0  0
   11.9673   14.8003   20.6068 N   0  0  0  0  0  0  0  0  0  0  0  0
   11.5704   16.1318   21.0428 C   0  0  0  0  0  0  0  0  0  0  0  0
   10.5394   16.6710   20.0655 C   0  0  0  0  0  0  0  0  0  0  0  0
   11.0504   16.6547   18.6149 C   0  0  0  0  0  0  0  0  0  0  0  0
   11.9507   15.4602   18.1764 C   0  0  2  0  0  0  0  0  0  0  0  0
   11.2286   14.4516   17.4226 N   0  0  0  0  0  0  0  0  0  0  0  0
   10.0359   13.9132   18.0339 C   0  0  0  0  0  0  0  0  0  0  0  0
    9.2995   13.2154   16.8989 C   0  0  0  0  0  0  0  0  0  0  0  0
    9.6151   14.0988   15.7028 C   0  0  0  0  0  0  0  0  0  0  0  0
   11.0282   14.6379   15.9893 C   0  0  0  0  0  0  0  0  0  0  0  0
   12.7261   14.8172   19.3586 C   0  0  0  0  0  0  0  0  0  0  0  0
  1  2  1  0
  2  3  2  0
  3  4  1  0
  4  5  1  0
  5  6  1  0
  5  7  2  0
  4  8  2  0
  8  9  1  0
  9 10  2  0
 10 11  1  0
 11 12  1  0
 12 13  2  0
 12 14  1  0
 14 15  2  0
 14 16  1  0
 16 17  1  0
 17 18  1  0
 18 19  1  0
 19 20  1  0
 20 21  1  1
 21 22  1  0
 22 23  1  0
 23 24  1  0
 24 25  1  0
 20 26  1  0
 10  2  1  0
 26 16  1  0
 25 21  1  0
M  END
>  <ref_pdb>  (39) 
x0554_0A

>  <ref_mols>  (39) 
x0310_0A,x0556_0A

>  <original SMILES>  (39) 
Cc1nc(C(N)=O)ccc1NC(=O)C(=O)N1CCC[C@H](N2CCCC2)C1

>  <IC50 (nM)>  (39) 
1265.435459759685

>  <CNNaffinity>  (39) 
5.89776

>  <rationale>  (39) 
-1

$$$$
PV_005340944088
     RDKit          3D

 26 28  0  0  0  0  0  0  0  0999 V2000
    9.9225    9.3967   23.0238 C   0  0  0  0  0  0  0  0  0  0  0  0
    9.0793   10.4262   23.7265 C   0  0  0  0  0  0  0  0  0  0  0  0
    8.0652    9.9694   24.4409 N   0  0  0  0  0  0  0  0  0  0  0  0
    7.2815   10.8387   25.0844 C   0  0  0  0  0  0  0  0  0  0  0  0
    6.1576   10.2380   25.8806 C   0  0  0  0  0  0  0  0  0  0  0  0
    4.9822   10.9492   25.8130 N   0  0  0  0  0  0  0  0  0  0  0  0
    6.2853    9.2367   26.5526 O   0  0  0  0  0  0  0  0  0  0  0  0
    7.4980   12.2107   25.0773 C   0  0  0  0  0  0  0  0  0  0  0  0
    8.5502   12.7075   24.3297 C   0  0  0  0  0  0  0  0  0  0  0  0
    9.3472   11.8065   23.6339 C   0  0  0  0  0  0  0  0  0  0  0  0
   10.4231   12.2554   22.8484 N   0  0  0  0  0  0  0  0  0  0  0  0
   10.4376   13.4217   22.1607 C   0  0  0  0  0  0  0  0  0  0  0  0
    9.5018   14.2042   22.1026 O   0  0  0  0  0  0  0  0  0  0  0  0
   11.8060   13.6148   21.4566 C   0  0  0  0  0  0  0  0  0  0  0  0
   12.7414   12.8782   21.7339 O   0  0  0  0  0  0  0  0  0  0  0  0
   11.8986   14.6147   20.5597 N   0  0  0  0  0  0  0  0  0  0  0  0
   13.0991   14.8799   19.7789 C   0  0  0  0  0  0  0  0  0  0  0  0
   12.2323   15.6216   18.7599 C   0  0  0  0  0  0  0  0  0  0  0  0
   11.0058   15.4046   19.6794 C   0  0  0  0  0  0  0  0  0  0  0  0
    9.8833   14.6576   18.9815 C   0  0  0  0  0  0  0  0  0  0  0  0
    9.3720   15.5051   17.8029 C   0  0  0  0  0  0  0  0  0  0  0  0
    9.4563   17.0112   18.0713 C   0  0  0  0  0  0  0  0  0  0  0  0
    8.4661   17.6528   17.3808 F   0  0  0  0  0  0  0  0  0  0  0  0
   10.6264   17.5226   17.5466 F   0  0  0  0  0  0  0  0  0  0  0  0
    9.3773   17.3733   19.5463 C   0  0  0  0  0  0  0  0  0  0  0  0
   10.4175   16.6241   20.4002 C   0  0  0  0  0  0  0  0  0  0  0  0
  1  2  1  0
  2  3  2  0
  3  4  1  0
  4  5  1  0
  5  6  1  0
  5  7  2  0
  4  8  2  0
  8  9  1  0
  9 10  2  0
 10 11  1  0
 11 12  1  0
 12 13  2  0
 12 14  1  0
 14 15  2  0
 14 16  1  0
 16 17  1  0
 17 18  1  0
 18 19  1  0
 19 20  1  0
 20 21  1  0
 21 22  1  0
 22 23  1  0
 22 24  1  0
 22 25  1  0
 25 26  1  0
 10  2  1  0
 19 16  1  0
 26 19  1  0
M  END
>  <ref_pdb>  (40) 
x0554_0A

>  <ref_mols>  (40) 
x0310_0A,x0556_0A

>  <original SMILES>  (40) 
Cc1nc(C(N)=O)ccc1NC(=O)C(=O)N1CCC12CCC(F)(F)CC2

>  <IC50 (nM)>  (40) 
1273.767019793004

>  <CNNaffinity>  (40) 
5.89491

>  <rationale>  (40) 
-1

$$$$
PV_005529932720
     RDKit          3D

 27 28  0  0  0  0  0  0  0  0999 V2000
    9.7822    9.1795   23.2532 C   0  0  0  0  0  0  0  0  0  0  0  0
    8.9665   10.3287   23.8033 C   0  0  0  0  0  0  0  0  0  0  0  0
    7.8738    9.9874   24.4895 N   0  0  0  0  0  0  0  0  0  0  0  0
    7.0568   10.9401   25.0011 C   0  0  0  0  0  0  0  0  0  0  0  0
    5.7528   10.5507   25.7557 C   0  0  0  0  0  0  0  0  0  0  0  0
    5.3168   11.4303   26.7353 N   0  0  0  0  0  0  0  0  0  0  0  0
    5.0416    9.5923   25.5323 O   0  0  0  0  0  0  0  0  0  0  0  0
    7.3721   12.2978   24.8580 C   0  0  0  0  0  0  0  0  0  0  0  0
    8.5172   12.6797   24.1728 C   0  0  0  0  0  0  0  0  0  0  0  0
    9.3314   11.7023   23.6004 C   0  0  0  0  0  0  0  0  0  0  0  0
   10.4725   12.1131   22.8477 N   0  0  0  0  0  0  0  0  0  0  0  0
   10.6976   13.3430   22.2682 C   0  0  0  0  0  0  0  0  0  0  0  0
    9.9091   14.2736   22.3266 O   0  0  0  0  0  0  0  0  0  0  0  0
   12.0825   13.4558   21.4520 C   0  0  0  0  0  0  0  0  0  0  0  0
   12.9241   12.5678   21.5178 O   0  0  0  0  0  0  0  0  0  0  0  0
   12.2529   14.5683   20.6434 N   0  0  0  0  0  0  0  0  0  0  0  0
   12.8570   14.4427   19.3126 C   0  0  0  0  0  0  0  0  0  0  0  0
   11.8372   14.5960   18.1752 C   0  0  0  0  0  0  0  0  0  0  0  0
   11.3841   16.0351   17.8214 C   0  0  1  0  0  0  0  0  0  0  0  0
   10.2600   16.0133   16.7575 C   0  0  0  0  0  0  0  0  0  0  0  0
    9.8797   17.2379   16.3767 F   0  0  0  0  0  0  0  0  0  0  0  0
   10.7032   15.3735   15.6523 F   0  0  0  0  0  0  0  0  0  0  0  0
    9.1610   15.3628   17.1839 F   0  0  0  0  0  0  0  0  0  0  0  0
   11.0183   16.8912   18.8829 O   0  0  0  0  0  0  0  0  0  0  0  0
   10.5575   16.3535   20.1258 C   0  0  2  0  0  0  0  0  0  0  0  0
    9.7922   17.4761   20.7987 C   0  0  0  0  0  0  0  0  0  0  0  0
   11.7528   15.8964   20.9832 C   0  0  0  0  0  0  0  0  0  0  0  0
  1  2  1  0
  2  3  2  0
  3  4  1  0
  4  5  1  0
  5  6  1  0
  5  7  2  0
  4  8  2  0
  8  9  1  0
  9 10  2  0
 10 11  1  0
 11 12  1  0
 12 13  2  0
 12 14  1  0
 14 15  2  0
 14 16  1  0
 16 17  1  0
 17 18  1  0
 18 19  1  0
 19 20  1  6
 20 21  1  0
 20 22  1  0
 20 23  1  0
 19 24  1  0
 24 25  1  0
 25 26  1  1
 25 27  1  0
 10  2  1  0
 27 16  1  0
M  END
>  <ref_pdb>  (41) 
x0554_0A

>  <ref_mols>  (41) 
x0310_0A,x0556_0A

>  <original SMILES>  (41) 
Cc1nc(C(N)=O)ccc1NC(=O)C(=O)N1CC[C@@H](C(F)(F)F)O[C@H](C)C1

>  <IC50 (nM)>  (41) 
1319.1676726401533

>  <CNNaffinity>  (41) 
5.8797

>  <rationale>  (41) 
-1

$$$$
PV_002587062244
     RDKit          3D

 27 29  0  0  0  0  0  0  0  0999 V2000
    9.7275    9.0368   23.1326 C   0  0  0  0  0  0  0  0  0  0  0  0
    8.9758   10.2147   23.7052 C   0  0  0  0  0  0  0  0  0  0  0  0
    7.8560    9.9387   24.3825 N   0  0  0  0  0  0  0  0  0  0  0  0
    7.1460   10.9404   24.9580 C   0  0  0  0  0  0  0  0  0  0  0  0
    5.8888   10.6496   25.8161 C   0  0  0  0  0  0  0  0  0  0  0  0
    5.5648    9.3728   26.1874 N   0  0  0  0  0  0  0  0  0  0  0  0
    5.1793   11.5485   26.2375 O   0  0  0  0  0  0  0  0  0  0  0  0
    7.5397   12.2819   24.8243 C   0  0  0  0  0  0  0  0  0  0  0  0
    8.7134   12.5860   24.1425 C   0  0  0  0  0  0  0  0  0  0  0  0
    9.4590   11.5542   23.5680 C   0  0  0  0  0  0  0  0  0  0  0  0
   10.6752   11.8975   22.9054 N   0  0  0  0  0  0  0  0  0  0  0  0
   11.5648   12.8497   23.3401 C   0  0  0  0  0  0  0  0  0  0  0  0
   11.4660   13.4120   24.4119 O   0  0  0  0  0  0  0  0  0  0  0  0
   12.6425   13.2291   22.3470 C   0  0  0  0  0  0  0  0  0  0  0  0
   12.1974   14.4999   21.6926 C   0  0  0  0  0  0  0  0  0  0  0  0
   11.3209   14.7583   20.6577 C   0  0  0  0  0  0  0  0  0  0  0  0
   10.5577   13.8718   19.7268 C   0  0  0  0  0  0  0  0  0  0  0  0
   11.2553   16.1260   20.6257 N   0  0  0  0  0  0  0  0  0  0  0  0
   10.5247   16.9680   19.7290 C   0  0  0  0  0  0  0  0  0  0  0  0
    9.7458   18.0148   20.2345 C   0  0  0  0  0  0  0  0  0  0  0  0
    8.9876   18.7880   19.3513 C   0  0  0  0  0  0  0  0  0  0  0  0
    8.9770   18.5141   17.9789 C   0  0  0  0  0  0  0  0  0  0  0  0
    9.7718   17.4749   17.4990 C   0  0  0  0  0  0  0  0  0  0  0  0
    9.7239   17.0512   15.8173 Cl  0  0  0  0  0  0  0  0  0  0  0  0
   10.5741   16.7167   18.3500 C   0  0  0  0  0  0  0  0  0  0  0  0
   12.0124   16.6587   21.6055 N   0  0  0  0  0  0  0  0  0  0  0  0
   12.5744   15.6873   22.2374 N   0  0  0  0  0  0  0  0  0  0  0  0
  1  2  1  0
  2  3  2  0
  3  4  1  0
  4  5  1  0
  5  6  1  0
  5  7  2  0
  4  8  2  0
  8  9  1  0
  9 10  2  0
 10 11  1  0
 11 12  1  0
 12 13  2  0
 12 14  1  0
 14 15  1  0
 15 16  2  0
 16 17  1  0
 16 18  1  0
 18 19  1  0
 19 20  2  0
 20 21  1  0
 21 22  2  0
 22 23  1  0
 23 24  1  0
 23 25  2  0
 18 26  1  0
 26 27  2  0
 10  2  1  0
 27 15  1  0
 25 19  1  0
M  END
>  <ref_pdb>  (42) 
x0554_0A

>  <ref_mols>  (42) 
x0310_0A,x0556_0A

>  <original SMILES>  (42) 
Cc1nc(C(N)=O)ccc1NC(=O)Cc1nnn(-c2cccc(Cl)c2)c1C

>  <IC50 (nM)>  (42) 
1335.149815258819

>  <CNNaffinity>  (42) 
5.87447

>  <rationale>  (42) 
-1

$$$$
PV_006815401967
     RDKit          3D

 26 28  0  0  0  0  0  0  0  0999 V2000
    9.6708    9.4276   23.1379 C   0  0  0  0  0  0  0  0  0  0  0  0
    8.9462   10.6209   23.7063 C   0  0  0  0  0  0  0  0  0  0  0  0
    7.8629   10.3696   24.4305 N   0  0  0  0  0  0  0  0  0  0  0  0
    7.1689   11.3852   24.9544 C   0  0  0  0  0  0  0  0  0  0  0  0
    5.9575   11.0509   25.7894 C   0  0  0  0  0  0  0  0  0  0  0  0
    5.7086    9.7288   25.9277 N   0  0  0  0  0  0  0  0  0  0  0  0
    5.2829   11.9253   26.3109 O   0  0  0  0  0  0  0  0  0  0  0  0
    7.5311   12.7134   24.7847 C   0  0  0  0  0  0  0  0  0  0  0  0
    8.6853   12.9946   24.0701 C   0  0  0  0  0  0  0  0  0  0  0  0
    9.3938   11.9431   23.5002 C   0  0  0  0  0  0  0  0  0  0  0  0
   10.5353   12.1857   22.7002 N   0  0  0  0  0  0  0  0  0  0  0  0
   11.4389   13.1939   22.9415 C   0  0  0  0  0  0  0  0  0  0  0  0
   11.4546   13.8294   23.9800 O   0  0  0  0  0  0  0  0  0  0  0  0
   12.3559   13.5436   21.7782 C   0  0  0  0  0  0  0  0  0  0  0  0
   11.6257   14.5060   20.8630 C   0  0  0  0  0  0  0  0  0  0  0  0
   11.3122   15.7833   21.3373 C   0  0  0  0  0  0  0  0  0  0  0  0
   10.7033   16.6996   20.4976 C   0  0  0  0  0  0  0  0  0  0  0  0
   10.4011   16.3358   19.1910 C   0  0  0  0  0  0  0  0  0  0  0  0
   10.5448   15.0231   18.7429 C   0  0  0  0  0  0  0  0  0  0  0  0
   11.2109   14.1370   19.5857 C   0  0  0  0  0  0  0  0  0  0  0  0
    9.9671   14.5516   17.4319 C   0  0  0  0  0  0  0  0  0  0  0  0
   10.0262   15.5933   16.3182 C   0  0  0  0  0  0  0  0  0  0  0  0
    9.2661   16.8527   16.7071 C   0  0  0  0  0  0  0  0  0  0  0  0
   10.0809   17.6624   18.0676 S   0  0  0  0  0  6  0  0  0  0  0  0
    9.1485   18.5912   18.6899 O   0  0  0  0  0  0  0  0  0  0  0  0
   11.3636   18.1343   17.5580 O   0  0  0  0  0  0  0  0  0  0  0  0
  1  2  1  0
  2  3  2  0
  3  4  1  0
  4  5  1  0
  5  6  1  0
  5  7  2  0
  4  8  2  0
  8  9  1  0
  9 10  2  0
 10 11  1  0
 11 12  1  0
 12 13  2  0
 12 14  1  0
 14 15  1  0
 15 16  2  0
 16 17  1  0
 17 18  2  0
 18 19  1  0
 19 20  2  0
 19 21  1  0
 21 22  1  0
 22 23  1  0
 23 24  1  0
 24 25  2  0
 24 26  2  0
 10  2  1  0
 20 15  1  0
 24 18  1  0
M  END
>  <ref_pdb>  (43) 
x0554_0A

>  <ref_mols>  (43) 
x0310_0A,x0556_0A

>  <original SMILES>  (43) 
Cc1nc(C(N)=O)ccc1NC(=O)Cc1ccc2c(c1)CCCS2(=O)=O

>  <IC50 (nM)>  (43) 
1335.4572802618293

>  <CNNaffinity>  (43) 
5.87437

>  <rationale>  (43) 
-1

$$$$
PV_002493483365
     RDKit          3D

 25 27  0  0  0  0  0  0  0  0999 V2000
    9.6916    9.5688   23.1212 C   0  0  0  0  0  0  0  0  0  0  0  0
    8.9214   10.7341   23.6842 C   0  0  0  0  0  0  0  0  0  0  0  0
    7.8268   10.4611   24.3828 N   0  0  0  0  0  0  0  0  0  0  0  0
    7.1092   11.4606   24.9104 C   0  0  0  0  0  0  0  0  0  0  0  0
    5.9357   11.0946   25.7860 C   0  0  0  0  0  0  0  0  0  0  0  0
    5.7380    9.7647   25.9154 N   0  0  0  0  0  0  0  0  0  0  0  0
    5.2583   11.9426   26.3468 O   0  0  0  0  0  0  0  0  0  0  0  0
    7.4237   12.7958   24.7196 C   0  0  0  0  0  0  0  0  0  0  0  0
    8.5822   13.0960   24.0224 C   0  0  0  0  0  0  0  0  0  0  0  0
    9.3522   12.0589   23.5138 C   0  0  0  0  0  0  0  0  0  0  0  0
   10.5783   12.3150   22.8521 N   0  0  0  0  0  0  0  0  0  0  0  0
   11.5389   13.1098   23.4288 C   0  0  0  0  0  0  0  0  0  0  0  0
   11.4485   13.5465   24.5572 O   0  0  0  0  0  0  0  0  0  0  0  0
   12.7255   13.4194   22.5133 C   0  0  0  0  0  0  0  0  0  0  0  0
   12.2814   14.3902   21.4619 C   0  0  0  0  0  0  0  0  0  0  0  0
   11.6983   14.0521   20.3545 N   0  0  0  0  0  0  0  0  0  0  0  0
   11.2046   15.1646   19.6959 C   0  0  0  0  0  0  0  0  0  0  0  0
   10.4332   14.9822   18.4560 C   0  0  0  0  0  0  0  0  0  0  0  0
    9.8061   16.0531   17.8124 C   0  0  0  0  0  0  0  0  0  0  0  0
    8.9128   15.8049   16.7795 C   0  0  0  0  0  0  0  0  0  0  0  0
    8.6636   14.5005   16.3536 C   0  0  0  0  0  0  0  0  0  0  0  0
    9.3641   13.4436   16.9282 C   0  0  0  0  0  0  0  0  0  0  0  0
   10.2438   13.6892   17.9755 C   0  0  0  0  0  0  0  0  0  0  0  0
   11.4049   16.3456   20.3371 C   0  0  0  0  0  0  0  0  0  0  0  0
   12.3033   16.0969   21.7767 S   0  0  0  0  0  0  0  0  0  0  0  0
  1  2  1  0
  2  3  2  0
  3  4  1  0
  4  5  1  0
  5  6  1  0
  5  7  2  0
  4  8  2  0
  8  9  1  0
  9 10  2  0
 10 11  1  0
 11 12  1  0
 12 13  2  0
 12 14  1  0
 14 15  1  0
 15 16  2  0
 16 17  1  0
 17 18  1  0
 18 19  2  0
 19 20  1  0
 20 21  2  0
 21 22  1  0
 22 23  2  0
 17 24  2  0
 24 25  1  0
 10  2  1  0
 25 15  1  0
 23 18  1  0
M  END
>  <ref_pdb>  (44) 
x0554_0A

>  <ref_mols>  (44) 
x0310_0A,x0556_0A

>  <original SMILES>  (44) 
Cc1nc(C(N)=O)ccc1NC(=O)Cc1nc(-c2ccccc2)cs1

>  <IC50 (nM)>  (44) 
1338.782417358168

>  <CNNaffinity>  (44) 
5.87329

>  <rationale>  (44) 
-1

$$$$
PV_005204124149
     RDKit          3D

 28 30  0  0  0  0  0  0  0  0999 V2000
    9.3900    9.1906   23.5771 C   0  0  0  0  0  0  0  0  0  0  0  0
    8.6221   10.3005   24.2473 C   0  0  0  0  0  0  0  0  0  0  0  0
    7.5214    9.9882   24.9203 N   0  0  0  0  0  0  0  0  0  0  0  0
    6.7969   10.9593   25.4893 C   0  0  0  0  0  0  0  0  0  0  0  0
    5.5221   10.5712   26.1964 C   0  0  0  0  0  0  0  0  0  0  0  0
    5.2478    9.2481   26.1513 N   0  0  0  0  0  0  0  0  0  0  0  0
    4.8185   11.4024   26.7479 O   0  0  0  0  0  0  0  0  0  0  0  0
    7.1656   12.2942   25.4626 C   0  0  0  0  0  0  0  0  0  0  0  0
    8.3078   12.6394   24.7617 C   0  0  0  0  0  0  0  0  0  0  0  0
    9.0350   11.6390   24.1282 C   0  0  0  0  0  0  0  0  0  0  0  0
   10.1712   11.9720   23.3505 N   0  0  0  0  0  0  0  0  0  0  0  0
   10.1485   13.0150   22.4801 C   0  0  0  0  0  0  0  0  0  0  0  0
    9.1620   13.6873   22.2306 O   0  0  0  0  0  0  0  0  0  0  0  0
   11.5039   13.2704   21.7708 C   0  0  0  0  0  0  0  0  0  0  0  0
   12.4733   12.5603   21.9659 O   0  0  0  0  0  0  0  0  0  0  0  0
   11.4472   14.3444   20.9177 N   0  0  0  0  0  0  0  0  0  0  0  0
   11.0756   15.6358   21.4943 C   0  0  0  0  0  0  0  0  0  0  0  0
   10.5764   16.5114   20.3749 C   0  0  0  0  0  0  0  0  0  0  0  0
   11.6025   16.6731   19.4229 O   0  0  0  0  0  0  0  0  0  0  0  0
   11.9667   15.4686   18.7738 C   0  0  2  0  0  0  0  0  0  0  0  0
   10.8701   15.1464   17.7729 C   0  0  0  0  0  0  0  0  0  0  0  0
   10.2276   13.9241   17.6580 C   0  0  0  0  0  0  0  0  0  0  0  0
    9.1823   13.8186   16.7518 C   0  0  0  0  0  0  0  0  0  0  0  0
    8.5877   12.6269   16.5965 F   0  0  0  0  0  0  0  0  0  0  0  0
    8.7193   14.8886   16.0088 C   0  0  0  0  0  0  0  0  0  0  0  0
    9.3923   16.1005   16.1003 C   0  0  0  0  0  0  0  0  0  0  0  0
   10.4628   16.2217   16.9698 C   0  0  0  0  0  0  0  0  0  0  0  0
   12.3943   14.4246   19.8137 C   0  0  0  0  0  0  0  0  0  0  0  0
  1  2  1  0
  2  3  2  0
  3  4  1  0
  4  5  1  0
  5  6  1  0
  5  7  2  0
  4  8  2  0
  8  9  1  0
  9 10  2  0
 10 11  1  0
 11 12  1  0
 12 13  2  0
 12 14  1  0
 14 15  2  0
 14 16  1  0
 16 17  1  0
 17 18  1  0
 18 19  1  0
 19 20  1  0
 20 21  1  1
 21 22  2  0
 22 23  1  0
 23 24  1  0
 23 25  2  0
 25 26  1  0
 26 27  2  0
 20 28  1  0
 10  2  1  0
 28 16  1  0
 27 21  1  0
M  END
>  <ref_pdb>  (45) 
x0554_0A

>  <ref_mols>  (45) 
x0310_0A,x0556_0A

>  <original SMILES>  (45) 
Cc1nc(C(N)=O)ccc1NC(=O)C(=O)N1CCO[C@H](c2cccc(F)c2)C1

>  <IC50 (nM)>  (45) 
1338.8749003654896

>  <CNNaffinity>  (45) 
5.87326

>  <rationale>  (45) 
-1

$$$$
PV_002173200500
     RDKit          3D

 24 25  0  0  0  0  0  0  0  0999 V2000
   10.1899   17.3745   20.0778 C   0  0  0  0  0  0  0  0  0  0  0  0
   10.8286   16.0314   20.2434 C   0  0  0  0  0  0  0  0  0  0  0  0
   11.4842   15.5565   21.3567 C   0  0  0  0  0  0  0  0  0  0  0  0
   11.8589   14.2789   21.1134 N   0  0  0  0  0  0  0  0  0  0  0  0
   12.5215   13.4180   22.0721 C   0  0  0  0  0  0  0  0  0  0  0  0
   11.5536   12.8983   23.1359 C   0  0  0  0  0  0  0  0  0  0  0  0
   11.6903   13.1770   24.3103 O   0  0  0  0  0  0  0  0  0  0  0  0
   10.5406   12.1116   22.6605 N   0  0  0  0  0  0  0  0  0  0  0  0
    9.3950   11.8566   23.4582 C   0  0  0  0  0  0  0  0  0  0  0  0
    8.6905   12.9148   24.0219 C   0  0  0  0  0  0  0  0  0  0  0  0
    7.5483   12.6478   24.7575 C   0  0  0  0  0  0  0  0  0  0  0  0
    7.1993   11.3202   24.9403 C   0  0  0  0  0  0  0  0  0  0  0  0
    5.9929   11.0038   25.7855 C   0  0  0  0  0  0  0  0  0  0  0  0
    5.7615    9.6855   25.9616 N   0  0  0  0  0  0  0  0  0  0  0  0
    5.3157   11.8919   26.2817 O   0  0  0  0  0  0  0  0  0  0  0  0
    7.8918   10.2968   24.4258 N   0  0  0  0  0  0  0  0  0  0  0  0
    8.9633   10.5384   23.6813 C   0  0  0  0  0  0  0  0  0  0  0  0
    9.6991    9.3450   23.1309 C   0  0  0  0  0  0  0  0  0  0  0  0
   11.4683   13.8713   19.9047 N   0  0  0  0  0  0  0  0  0  0  0  0
   10.8685   14.9261   19.3644 C   0  0  0  0  0  0  0  0  0  0  0  0
   10.4413   14.8705   17.9306 C   0  0  0  0  0  0  0  0  0  0  0  0
    9.4830   15.7917   17.6715 F   0  0  0  0  0  0  0  0  0  0  0  0
   11.4786   15.1301   17.1126 F   0  0  0  0  0  0  0  0  0  0  0  0
    9.9482   13.6777   17.5926 F   0  0  0  0  0  0  0  0  0  0  0  0
  1  2  1  0
  2  3  2  0
  3  4  1  0
  4  5  1  0
  5  6  1  0
  6  7  2  0
  6  8  1  0
  8  9  1  0
  9 10  2  0
 10 11  1  0
 11 12  2  0
 12 13  1  0
 13 14  1  0
 13 15  2  0
 12 16  1  0
 16 17  2  0
 17 18  1  0
  4 19  1  0
 19 20  2  0
 20 21  1  0
 21 22  1  0
 21 23  1  0
 21 24  1  0
 20  2  1  0
 17  9  1  0
M  END
>  <ref_pdb>  (46) 
x0554_0A

>  <ref_mols>  (46) 
x0310_0A,x0556_0A

>  <original SMILES>  (46) 
Cc1cn(CC(=O)Nc2ccc(C(N)=O)nc2C)nc1C(F)(F)F

>  <IC50 (nM)>  (46) 
1342.1467373834867

>  <CNNaffinity>  (46) 
5.8722

>  <rationale>  (46) 
-1

$$$$
Z4093734167
     RDKit          3D

 25 27  0  0  0  0  0  0  0  0999 V2000
    9.6325    9.0801   23.2301 C   0  0  0  0  0  0  0  0  0  0  0  0
    8.9081   10.2758   23.7886 C   0  0  0  0  0  0  0  0  0  0  0  0
    7.7946   10.0521   24.4794 N   0  0  0  0  0  0  0  0  0  0  0  0
    7.1199   11.0878   24.9928 C   0  0  0  0  0  0  0  0  0  0  0  0
    5.8899   10.8042   25.8204 C   0  0  0  0  0  0  0  0  0  0  0  0
    5.6317    9.4967   26.0488 N   0  0  0  0  0  0  0  0  0  0  0  0
    5.2105   11.7132   26.2724 O   0  0  0  0  0  0  0  0  0  0  0  0
    7.5187   12.4068   24.8347 C   0  0  0  0  0  0  0  0  0  0  0  0
    8.6927   12.6514   24.1433 C   0  0  0  0  0  0  0  0  0  0  0  0
    9.4113   11.5795   23.6261 C   0  0  0  0  0  0  0  0  0  0  0  0
   10.6418   11.8046   22.9528 N   0  0  0  0  0  0  0  0  0  0  0  0
   11.5955   12.6543   23.4628 C   0  0  0  0  0  0  0  0  0  0  0  0
   11.5455   13.0981   24.5936 O   0  0  0  0  0  0  0  0  0  0  0  0
   12.7129   13.0319   22.4925 C   0  0  0  0  0  0  0  0  0  0  0  0
   12.2711   14.1425   21.5886 C   0  0  0  0  0  0  0  0  0  0  0  0
   11.6455   13.8971   20.4467 N   0  0  0  0  0  0  0  0  0  0  0  0
   11.3648   15.0944   19.9499 N   0  0  0  0  0  0  0  0  0  0  0  0
   10.6796   15.2134   18.7134 C   0  0  0  0  0  0  0  0  0  0  0  0
   10.4016   16.4534   18.1351 C   0  0  0  0  0  0  0  0  0  0  0  0
    9.7119   16.4826   16.9270 C   0  0  0  0  0  0  0  0  0  0  0  0
    9.2938   15.3005   16.3183 C   0  0  0  0  0  0  0  0  0  0  0  0
    9.5963   14.0721   16.8946 C   0  0  0  0  0  0  0  0  0  0  0  0
   10.2953   14.0280   18.0916 C   0  0  0  0  0  0  0  0  0  0  0  0
   11.7447   16.1158   20.6949 N   0  0  0  0  0  0  0  0  0  0  0  0
   12.3239   15.5360   21.7408 C   0  0  0  0  0  0  0  0  0  0  0  0
  1  2  1  0
  2  3  2  0
  3  4  1  0
  4  5  1  0
  5  6  1  0
  5  7  2  0
  4  8  2  0
  8  9  1  0
  9 10  2  0
 10 11  1  0
 11 12  1  0
 12 13  2  0
 12 14  1  0
 14 15  1  0
 15 16  2  0
 16 17  1  0
 17 18  1  0
 18 19  2  0
 19 20  1  0
 20 21  2  0
 21 22  1  0
 22 23  2  0
 17 24  1  0
 24 25  2  0
 10  2  1  0
 25 15  1  0
 23 18  1  0
M  END
>  <ref_pdb>  (47) 
x0554_0A

>  <ref_mols>  (47) 
x0310_0A,x0556_0A

>  <original SMILES>  (47) 
Cc1nc(C(N)=O)ccc1NC(=O)Cc1cnn(-c2ccccc2)n1

>  <IC50 (nM)>  (47) 
1360.1913228556718

>  <CNNaffinity>  (47) 
5.8664

>  <rationale>  (47) 
-1

$$$$
PV_004336823406
     RDKit          3D

 26 28  0  0  0  0  0  0  0  0999 V2000
    9.4178    9.5874   23.2018 C   0  0  0  0  0  0  0  0  0  0  0  0
    8.6566   10.7243   23.8382 C   0  0  0  0  0  0  0  0  0  0  0  0
    7.5813   10.3850   24.5351 N   0  0  0  0  0  0  0  0  0  0  0  0
    6.7737   11.3315   25.0243 C   0  0  0  0  0  0  0  0  0  0  0  0
    5.6286   10.8766   25.8989 C   0  0  0  0  0  0  0  0  0  0  0  0
    5.5120    9.5312   25.9984 N   0  0  0  0  0  0  0  0  0  0  0  0
    4.8911   11.6729   26.4576 O   0  0  0  0  0  0  0  0  0  0  0  0
    6.9495   12.6809   24.7485 C   0  0  0  0  0  0  0  0  0  0  0  0
    8.0852   13.0610   24.0487 C   0  0  0  0  0  0  0  0  0  0  0  0
    9.0010   12.0819   23.6824 C   0  0  0  0  0  0  0  0  0  0  0  0
   10.2808   12.4556   23.1857 N   0  0  0  0  0  0  0  0  0  0  0  0
   10.4555   13.4508   22.2092 C   0  0  0  0  0  0  0  0  0  0  0  0
    9.5905   13.8850   21.4803 O   0  0  0  0  0  0  0  0  0  0  0  0
   11.7701   13.8161   22.2772 N   0  0  0  0  0  0  0  0  0  0  0  0
   12.5717   12.9715   23.1435 C   0  0  1  0  0  0  0  0  0  0  0  0
   13.4908   13.7727   24.0781 C   0  0  0  0  0  0  0  0  0  0  0  0
   14.2840   12.9237   25.0532 C   0  0  0  0  0  0  0  0  0  0  0  0
   14.0061   12.9577   26.4209 C   0  0  0  0  0  0  0  0  0  0  0  0
   14.7225   12.1836   27.3267 C   0  0  0  0  0  0  0  0  0  0  0  0
   15.7068   11.3281   26.8637 C   0  0  0  0  0  0  0  0  0  0  0  0
   16.3783   10.5674   27.7342 F   0  0  0  0  0  0  0  0  0  0  0  0
   15.9826   11.2468   25.5029 C   0  0  0  0  0  0  0  0  0  0  0  0
   17.1541   10.1061   24.9319 Cl  0  0  0  0  0  0  0  0  0  0  0  0
   15.2891   12.0615   24.6105 C   0  0  0  0  0  0  0  0  0  0  0  0
   11.4733   12.1877   23.8649 C   0  0  0  0  0  0  0  0  0  0  0  0
   11.5656   11.4929   24.8477 O   0  0  0  0  0  0  0  0  0  0  0  0
  1  2  1  0
  2  3  2  0
  3  4  1  0
  4  5  1  0
  5  6  1  0
  5  7  2  0
  4  8  2  0
  8  9  1  0
  9 10  2  0
 10 11  1  0
 11 12  1  0
 12 13  2  0
 12 14  1  0
 14 15  1  0
 15 16  1  1
 16 17  1  0
 17 18  2  0
 18 19  1  0
 19 20  2  0
 20 21  1  0
 20 22  1  0
 22 23  1  0
 22 24  2  0
 15 25  1  0
 25 26  2  0
 10  2  1  0
 25 11  1  0
 24 17  1  0
M  END
>  <ref_pdb>  (48) 
x0554_0A

>  <ref_mols>  (48) 
x0310_0A,x0556_0A

>  <original SMILES>  (48) 
Cc1nc(C(N)=O)ccc1N1C(=O)N[C@@H](Cc2ccc(F)c(Cl)c2)C1=O

>  <IC50 (nM)>  (48) 
1362.7619530570162

>  <CNNaffinity>  (48) 
5.86558

>  <rationale>  (48) 
-1

$$$$
PV_006749586224
     RDKit          3D

 26 28  0  0  0  0  0  0  0  0999 V2000
    9.4185    9.5884   23.2008 C   0  0  0  0  0  0  0  0  0  0  0  0
    8.6579   10.7233   23.8399 C   0  0  0  0  0  0  0  0  0  0  0  0
    7.5837   10.3858   24.5397 N   0  0  0  0  0  0  0  0  0  0  0  0
    6.7738   11.3312   25.0258 C   0  0  0  0  0  0  0  0  0  0  0  0
    5.6283   10.8749   25.8966 C   0  0  0  0  0  0  0  0  0  0  0  0
    5.5095    9.5304   25.9971 N   0  0  0  0  0  0  0  0  0  0  0  0
    4.8906   11.6730   26.4551 O   0  0  0  0  0  0  0  0  0  0  0  0
    6.9479   12.6812   24.7515 C   0  0  0  0  0  0  0  0  0  0  0  0
    8.0851   13.0585   24.0532 C   0  0  0  0  0  0  0  0  0  0  0  0
    9.0011   12.0803   23.6853 C   0  0  0  0  0  0  0  0  0  0  0  0
   10.2812   12.4532   23.1874 N   0  0  0  0  0  0  0  0  0  0  0  0
   10.4547   13.4502   22.2120 C   0  0  0  0  0  0  0  0  0  0  0  0
    9.5863   13.8876   21.4900 O   0  0  0  0  0  0  0  0  0  0  0  0
   11.7709   13.8107   22.2702 N   0  0  0  0  0  0  0  0  0  0  0  0
   12.5723   12.9711   23.1413 C   0  0  1  0  0  0  0  0  0  0  0  0
   13.4862   13.7762   24.0791 C   0  0  0  0  0  0  0  0  0  0  0  0
   14.2824   12.9317   25.0543 C   0  0  0  0  0  0  0  0  0  0  0  0
   14.0043   12.9637   26.4210 C   0  0  0  0  0  0  0  0  0  0  0  0
   14.7206   12.1900   27.3270 C   0  0  0  0  0  0  0  0  0  0  0  0
   15.7006   11.3318   26.8619 C   0  0  0  0  0  0  0  0  0  0  0  0
   16.3732   10.5694   27.7294 F   0  0  0  0  0  0  0  0  0  0  0  0
   15.9771   11.2503   25.5018 C   0  0  0  0  0  0  0  0  0  0  0  0
   17.1491   10.1079   24.9324 Cl  0  0  0  0  0  0  0  0  0  0  0  0
   15.2860   12.0680   24.6108 C   0  0  0  0  0  0  0  0  0  0  0  0
   11.4752   12.1849   23.8636 C   0  0  0  0  0  0  0  0  0  0  0  0
   11.5743   11.4868   24.8419 O   0  0  0  0  0  0  0  0  0  0  0  0
  1  2  1  0
  2  3  2  0
  3  4  1  0
  4  5  1  0
  5  6  1  0
  5  7  2  0
  4  8  2  0
  8  9  1  0
  9 10  2  0
 10 11  1  0
 11 12  1  0
 12 13  2  0
 12 14  1  0
 14 15  1  0
 15 16  1  1
 16 17  1  0
 17 18  2  0
 18 19  1  0
 19 20  2  0
 20 21  1  0
 20 22  1  0
 22 23  1  0
 22 24  2  0
 15 25  1  0
 25 26  2  0
 10  2  1  0
 25 11  1  0
 24 17  1  0
M  END
>  <ref_pdb>  (49) 
x0554_0A

>  <ref_mols>  (49) 
x0310_0A,x0556_0A

>  <original SMILES>  (49) 
Cc1nc(C(N)=O)ccc1N1C(=O)N[C@@H](Cc2ccc(F)c(Cl)c2)C1=O

>  <IC50 (nM)>  (49) 
1368.012293047149

>  <CNNaffinity>  (49) 
5.86391

>  <rationale>  (49) 
-1

$$$$
PV_005120657118
     RDKit          3D

 27 28  0  0  0  0  0  0  0  0999 V2000
    9.6969    9.1165   23.2076 C   0  0  0  0  0  0  0  0  0  0  0  0
    8.9347   10.2652   23.8194 C   0  0  0  0  0  0  0  0  0  0  0  0
    7.8419    9.9450   24.5195 N   0  0  0  0  0  0  0  0  0  0  0  0
    7.0959   10.9204   25.0918 C   0  0  0  0  0  0  0  0  0  0  0  0
    5.8132   10.5884   25.8962 C   0  0  0  0  0  0  0  0  0  0  0  0
    5.4659    9.2965   26.1600 N   0  0  0  0  0  0  0  0  0  0  0  0
    5.0988   11.4656   26.3562 O   0  0  0  0  0  0  0  0  0  0  0  0
    7.4580   12.2715   24.9804 C   0  0  0  0  0  0  0  0  0  0  0  0
    8.5870   12.6275   24.2508 C   0  0  0  0  0  0  0  0  0  0  0  0
    9.3486   11.6226   23.6500 C   0  0  0  0  0  0  0  0  0  0  0  0
   10.5040   11.9848   22.8960 N   0  0  0  0  0  0  0  0  0  0  0  0
   10.6271   13.1226   22.1308 C   0  0  0  0  0  0  0  0  0  0  0  0
    9.6945   13.8858   21.9382 O   0  0  0  0  0  0  0  0  0  0  0  0
   12.0809   13.3512   21.4848 C   0  0  0  0  0  0  0  0  0  0  0  0
   12.9744   12.5362   21.6263 O   0  0  0  0  0  0  0  0  0  0  0  0
   12.2590   14.5269   20.6849 N   0  0  0  0  0  0  0  0  0  0  0  0
   13.0511   14.5213   19.6275 C   0  0  0  0  0  0  0  0  0  0  0  0
   11.5574   15.8111   20.9809 C   0  0  0  0  0  0  0  0  0  0  0  0
   10.6036   16.2561   19.8751 C   0  0  0  0  0  0  0  0  0  0  0  0
   10.1912   15.4039   18.8436 C   0  0  0  0  0  0  0  0  0  0  0  0
    9.4605   15.8968   17.7683 C   0  0  0  0  0  0  0  0  0  0  0  0
    9.1222   15.0244   16.8122 F   0  0  0  0  0  0  0  0  0  0  0  0
    9.0980   17.2509   17.6836 C   0  0  0  0  0  0  0  0  0  0  0  0
    8.4200   17.7463   16.5664 F   0  0  0  0  0  0  0  0  0  0  0  0
    9.4354   18.0737   18.7731 C   0  0  0  0  0  0  0  0  0  0  0  0
    9.0759   19.3630   18.8029 F   0  0  0  0  0  0  0  0  0  0  0  0
   10.1796   17.5882   19.8460 C   0  0  0  0  0  0  0  0  0  0  0  0
  1  2  1  0
  2  3  2  0
  3  4  1  0
  4  5  1  0
  5  6  1  0
  5  7  2  0
  4  8  2  0
  8  9  1  0
  9 10  2  0
 10 11  1  0
 11 12  1  0
 12 13  2  0
 12 14  1  0
 14 15  2  0
 14 16  1  0
 16 17  1  0
 16 18  1  0
 18 19  1  0
 19 20  2  0
 20 21  1  0
 21 22  1  0
 21 23  2  0
 23 24  1  0
 23 25  1  0
 25 26  1  0
 25 27  2  0
 10  2  1  0
 27 19  1  0
M  END
>  <ref_pdb>  (50) 
x0554_0A

>  <ref_mols>  (50) 
x0310_0A,x0556_0A

>  <original SMILES>  (50) 
Cc1nc(C(N)=O)ccc1NC(=O)C(=O)N(C)Cc1cc(F)c(F)c(F)c1

>  <IC50 (nM)>  (50) 
1394.0231949978884

>  <CNNaffinity>  (50) 
5.85573

>  <rationale>  (50) 
-1

$$$$
PV_002513347605
     RDKit          3D

 27 29  0  0  0  0  0  0  0  0999 V2000
    8.4647   19.3506   17.0923 C   0  0  0  0  0  0  0  0  0  0  0  0
    9.1347   18.4392   18.0760 C   0  0  0  0  0  0  0  0  0  0  0  0
    8.9602   18.5712   19.4593 C   0  0  0  0  0  0  0  0  0  0  0  0
    9.6757   17.7686   20.3514 C   0  0  0  0  0  0  0  0  0  0  0  0
   10.5886   16.8359   19.8528 C   0  0  0  0  0  0  0  0  0  0  0  0
   11.3396   16.0108   20.7473 N   0  0  0  0  0  0  0  0  0  0  0  0
   12.1166   16.5448   21.7094 N   0  0  0  0  0  0  0  0  0  0  0  0
   12.6853   15.5698   22.3342 N   0  0  0  0  0  0  0  0  0  0  0  0
   12.2951   14.3860   21.7924 C   0  0  0  0  0  0  0  0  0  0  0  0
   12.6969   13.0963   22.4306 C   0  0  0  0  0  0  0  0  0  0  0  0
   11.5950   12.7328   23.4022 C   0  0  0  0  0  0  0  0  0  0  0  0
   11.5189   13.2453   24.4995 O   0  0  0  0  0  0  0  0  0  0  0  0
   10.6536   11.8547   22.9152 N   0  0  0  0  0  0  0  0  0  0  0  0
    9.4334   11.5358   23.5798 C   0  0  0  0  0  0  0  0  0  0  0  0
    8.7003   12.5784   24.1444 C   0  0  0  0  0  0  0  0  0  0  0  0
    7.5213   12.2913   24.8269 C   0  0  0  0  0  0  0  0  0  0  0  0
    7.1130   10.9562   24.9653 C   0  0  0  0  0  0  0  0  0  0  0  0
    5.8435   10.6710   25.8080 C   0  0  0  0  0  0  0  0  0  0  0  0
    5.5293    9.3883   26.1581 N   0  0  0  0  0  0  0  0  0  0  0  0
    5.1308   11.5687   26.2275 O   0  0  0  0  0  0  0  0  0  0  0  0
    7.8199    9.9424   24.4047 N   0  0  0  0  0  0  0  0  0  0  0  0
    8.9378   10.2037   23.7226 C   0  0  0  0  0  0  0  0  0  0  0  0
    9.6896    9.0356   23.1321 C   0  0  0  0  0  0  0  0  0  0  0  0
   11.4144   14.6488   20.7651 C   0  0  0  0  0  0  0  0  0  0  0  0
   10.6215   13.7679   19.8592 C   0  0  0  0  0  0  0  0  0  0  0  0
   10.7694   16.6882   18.4698 C   0  0  0  0  0  0  0  0  0  0  0  0
   10.0459   17.4879   17.5963 C   0  0  0  0  0  0  0  0  0  0  0  0
  1  2  1  0
  2  3  2  0
  3  4  1  0
  4  5  2  0
  5  6  1  0
  6  7  1  0
  7  8  2  0
  8  9  1  0
  9 10  1  0
 10 11  1  0
 11 12  2  0
 11 13  1  0
 13 14  1  0
 14 15  2  0
 15 16  1  0
 16 17  2  0
 17 18  1  0
 18 19  1  0
 18 20  2  0
 17 21  1  0
 21 22  2  0
 22 23  1  0
  9 24  2  0
 24 25  1  0
  5 26  1  0
 26 27  2  0
 27  2  1  0
 24  6  1  0
 22 14  1  0
M  END
>  <ref_pdb>  (51) 
x0554_0A

>  <ref_mols>  (51) 
x0310_0A,x0556_0A

>  <original SMILES>  (51) 
Cc1ccc(-n2nnc(CC(=O)Nc3ccc(C(N)=O)nc3C)c2C)cc1

>  <IC50 (nM)>  (51) 
1402.846005913083

>  <CNNaffinity>  (51) 
5.85299

>  <rationale>  (51) 
-1

$$$$
PV_005951795648
     RDKit          3D

 27 29  0  0  0  0  0  0  0  0999 V2000
    9.6395    9.1804   23.2350 C   0  0  0  0  0  0  0  0  0  0  0  0
    8.8526   10.3061   23.8591 C   0  0  0  0  0  0  0  0  0  0  0  0
    7.7759    9.9602   24.5710 N   0  0  0  0  0  0  0  0  0  0  0  0
    7.0294   10.9134   25.1828 C   0  0  0  0  0  0  0  0  0  0  0  0
    5.7416   10.5389   25.9702 C   0  0  0  0  0  0  0  0  0  0  0  0
    5.4170    9.2322   26.1727 N   0  0  0  0  0  0  0  0  0  0  0  0
    5.0056   11.3839   26.4554 O   0  0  0  0  0  0  0  0  0  0  0  0
    7.3844   12.2702   25.1194 C   0  0  0  0  0  0  0  0  0  0  0  0
    8.4785   12.6534   24.3473 C   0  0  0  0  0  0  0  0  0  0  0  0
    9.2254   11.6736   23.6908 C   0  0  0  0  0  0  0  0  0  0  0  0
   10.3282   12.0785   22.8782 N   0  0  0  0  0  0  0  0  0  0  0  0
   10.3199   13.1708   22.0432 C   0  0  0  0  0  0  0  0  0  0  0  0
    9.3007   13.7951   21.7884 O   0  0  0  0  0  0  0  0  0  0  0  0
   11.7424   13.5284   21.3964 C   0  0  0  0  0  0  0  0  0  0  0  0
   12.7796   13.0714   21.8655 O   0  0  0  0  0  0  0  0  0  0  0  0
   11.7437   14.3336   20.2941 N   0  0  0  0  0  0  0  0  0  0  0  0
   12.9993   14.6032   19.5837 C   0  0  0  0  0  0  0  0  0  0  0  0
   12.5690   15.5995   18.5255 C   0  0  0  0  0  0  0  0  0  0  0  0
   11.1135   15.2759   18.2048 C   0  0  2  0  0  0  0  0  0  0  0  0
   10.5634   14.7259   19.5227 C   0  0  0  0  0  0  0  0  0  0  0  0
   10.8604   14.4444   16.9082 C   0  0  0  0  0  0  0  0  0  0  0  0
   10.3142   15.6887   16.2089 C   0  0  0  0  0  0  0  0  0  0  0  0
   11.1916   16.1777   15.3005 F   0  0  0  0  0  0  0  0  0  0  0  0
    9.1044   15.5705   15.6212 F   0  0  0  0  0  0  0  0  0  0  0  0
   10.3377   16.4658   17.5555 C   0  0  0  0  0  0  0  0  0  0  0  0
    9.1092   16.6700   18.0710 F   0  0  0  0  0  0  0  0  0  0  0  0
   10.9631   17.6678   17.5549 F   0  0  0  0  0  0  0  0  0  0  0  0
  1  2  1  0
  2  3  2  0
  3  4  1  0
  4  5  1  0
  5  6  1  0
  5  7  2  0
  4  8  2  0
  8  9  1  0
  9 10  2  0
 10 11  1  0
 11 12  1  0
 12 13  2  0
 12 14  1  0
 14 15  2  0
 14 16  1  0
 16 17  1  0
 17 18  1  0
 19 18  1  1
 19 20  1  0
 19 21  1  0
 21 22  1  0
 22 23  1  0
 22 24  1  0
 22 25  1  0
 25 26  1  0
 25 27  1  0
 10  2  1  0
 20 16  1  0
 25 19  1  0
M  END
>  <ref_pdb>  (52) 
x0554_0A

>  <ref_mols>  (52) 
x0310_0A,x0556_0A

>  <original SMILES>  (52) 
Cc1nc(C(N)=O)ccc1NC(=O)C(=O)N1CC[C@]2(C1)CC(F)(F)C2(F)F

>  <IC50 (nM)>  (52) 
1418.1755706832787

>  <CNNaffinity>  (52) 
5.84827

>  <rationale>  (52) 
-1

$$$$
PV_006225949351
     RDKit          3D

 26 28  0  0  0  0  0  0  0  0999 V2000
    9.5855    9.3350   23.5144 C   0  0  0  0  0  0  0  0  0  0  0  0
    8.7125   10.4074   24.1137 C   0  0  0  0  0  0  0  0  0  0  0  0
    7.6492   10.0149   24.7967 N   0  0  0  0  0  0  0  0  0  0  0  0
    6.8493   10.9264   25.3589 C   0  0  0  0  0  0  0  0  0  0  0  0
    5.6163   10.3851   26.0407 C   0  0  0  0  0  0  0  0  0  0  0  0
    5.2663   11.0522   27.1868 N   0  0  0  0  0  0  0  0  0  0  0  0
    4.9589    9.4662   25.6011 O   0  0  0  0  0  0  0  0  0  0  0  0
    7.1072   12.2923   25.3042 C   0  0  0  0  0  0  0  0  0  0  0  0
    8.1879   12.7180   24.5545 C   0  0  0  0  0  0  0  0  0  0  0  0
    8.9816   11.7744   23.9186 C   0  0  0  0  0  0  0  0  0  0  0  0
   10.0361   12.1913   23.0792 N   0  0  0  0  0  0  0  0  0  0  0  0
    9.9047   13.2149   22.1965 C   0  0  0  0  0  0  0  0  0  0  0  0
    8.8476   13.7723   21.9502 O   0  0  0  0  0  0  0  0  0  0  0  0
   11.2564   13.5561   21.5213 C   0  0  0  0  0  0  0  0  0  0  0  0
   12.2732   13.0055   21.9163 O   0  0  0  0  0  0  0  0  0  0  0  0
   11.2110   14.4534   20.4901 N   0  0  0  0  0  0  0  0  0  0  0  0
   12.5173   14.9257   20.0034 C   0  0  2  0  0  0  0  0  0  0  0  0
   12.8457   16.0480   21.0111 C   0  0  0  0  0  0  0  0  0  0  0  0
   11.4637   16.5895   21.4454 C   0  0  0  0  0  0  0  0  0  0  0  0
   10.4624   15.7099   20.6734 C   0  0  1  0  0  0  0  0  0  0  0  0
   10.1070   16.2728   19.2986 C   0  0  0  0  0  0  0  0  0  0  0  0
   10.8753   15.6120   18.1439 C   0  0  2  0  0  0  0  0  0  0  0  0
   10.2380   14.3219   17.6055 C   0  0  0  0  0  0  0  0  0  0  0  0
    8.8349   14.5098   17.0739 C   0  0  0  0  0  0  0  0  0  0  0  0
    8.8430   15.5238   16.1211 F   0  0  0  0  0  0  0  0  0  0  0  0
   12.3378   15.3513   18.5424 C   0  0  0  0  0  0  0  0  0  0  0  0
  1  2  1  0
  2  3  2  0
  3  4  1  0
  4  5  1  0
  5  6  1  0
  5  7  2  0
  4  8  2  0
  8  9  1  0
  9 10  2  0
 10 11  1  0
 11 12  1  0
 12 13  2  0
 12 14  1  0
 14 15  2  0
 14 16  1  0
 16 17  1  0
 17 18  1  1
 18 19  1  0
 20 19  1  6
 20 21  1  0
 21 22  1  0
 22 23  1  1
 23 24  1  0
 24 25  1  0
 22 26  1  0
 10  2  1  0
 20 16  1  0
 26 17  1  0
M  END
>  <ref_pdb>  (53) 
x0554_0A

>  <ref_mols>  (53) 
x0310_0A,x0556_0A

>  <original SMILES>  (53) 
Cc1nc(C(N)=O)ccc1NC(=O)C(=O)N1[C@@H]2CC[C@H]1C[C@H](CCF)C2

>  <IC50 (nM)>  (53) 
1434.333031591463

>  <CNNaffinity>  (53) 
5.84335

>  <rationale>  (53) 
-1

$$$$
PV_002566908948
     RDKit          3D

 27 29  0  0  0  0  0  0  0  0999 V2000
    9.9814    9.1822   22.8359 C   0  0  0  0  0  0  0  0  0  0  0  0
    9.1922   10.2655   23.5241 C   0  0  0  0  0  0  0  0  0  0  0  0
    8.2023    9.8617   24.3119 N   0  0  0  0  0  0  0  0  0  0  0  0
    7.4273   10.7692   24.9492 C   0  0  0  0  0  0  0  0  0  0  0  0
    6.2935   10.2509   25.8582 C   0  0  0  0  0  0  0  0  0  0  0  0
    5.1159   10.9731   25.8419 N   0  0  0  0  0  0  0  0  0  0  0  0
    6.3704    9.3161   26.6297 O   0  0  0  0  0  0  0  0  0  0  0  0
    7.6345   12.1509   24.7958 C   0  0  0  0  0  0  0  0  0  0  0  0
    8.6706   12.5933   23.9784 C   0  0  0  0  0  0  0  0  0  0  0  0
    9.4842   11.6514   23.3488 C   0  0  0  0  0  0  0  0  0  0  0  0
   10.5889   12.0853   22.5728 N   0  0  0  0  0  0  0  0  0  0  0  0
   10.5967   13.1600   21.7208 C   0  0  0  0  0  0  0  0  0  0  0  0
    9.5890   13.7289   21.3425 O   0  0  0  0  0  0  0  0  0  0  0  0
   12.0016   13.6363   21.3249 C   0  0  2  0  0  0  0  0  0  0  0  0
   12.2292   15.0958   21.7965 C   0  0  0  0  0  0  0  0  0  0  0  0
   11.6710   15.9238   20.6438 C   0  0  0  0  0  0  0  0  0  0  0  0
   11.1461   17.0119   20.7200 O   0  0  0  0  0  0  0  0  0  0  0  0
   11.8530   15.1527   19.5184 N   0  0  0  0  0  0  0  0  0  0  0  0
   12.0178   15.6788   18.1720 C   0  0  0  0  0  0  0  0  0  0  0  0
   10.7495   16.1760   17.5229 C   0  0  0  0  0  0  0  0  0  0  0  0
   10.3985   17.5339   17.5310 C   0  0  0  0  0  0  0  0  0  0  0  0
    9.2394   17.9860   16.8979 C   0  0  0  0  0  0  0  0  0  0  0  0
    8.4308   17.0777   16.2155 C   0  0  0  0  0  0  0  0  0  0  0  0
    8.7634   15.7189   16.1826 C   0  0  0  0  0  0  0  0  0  0  0  0
    9.9039   15.2918   16.8467 C   0  0  0  0  0  0  0  0  0  0  0  0
   10.1981   13.9749   16.8248 F   0  0  0  0  0  0  0  0  0  0  0  0
   12.1458   13.7566   19.7903 C   0  0  0  0  0  0  0  0  0  0  0  0
  1  2  1  0
  2  3  2  0
  3  4  1  0
  4  5  1  0
  5  6  1  0
  5  7  2  0
  4  8  2  0
  8  9  1  0
  9 10  2  0
 10 11  1  0
 11 12  1  0
 12 13  2  0
 14 12  1  6
 14 15  1  0
 15 16  1  0
 16 17  2  0
 16 18  1  0
 18 19  1  0
 19 20  1  0
 20 21  2  0
 21 22  1  0
 22 23  2  0
 23 24  1  0
 24 25  2  0
 25 26  1  0
 18 27  1  0
 10  2  1  0
 27 14  1  0
 25 20  1  0
M  END
>  <ref_pdb>  (54) 
x0554_0A

>  <ref_mols>  (54) 
x0310_0A,x0556_0A

>  <original SMILES>  (54) 
Cc1nc(C(N)=O)ccc1NC(=O)[C@@H]1CC(=O)N(Cc2ccccc2F)C1

>  <IC50 (nM)>  (54) 
1436.415226001586

>  <CNNaffinity>  (54) 
5.84272

>  <rationale>  (54) 
-1

$$$$
PV_006137411783
     RDKit          3D

 26 28  0  0  0  0  0  0  0  0999 V2000
    9.3334    9.7039   23.3708 C   0  0  0  0  0  0  0  0  0  0  0  0
    8.4495   10.7351   24.0224 C   0  0  0  0  0  0  0  0  0  0  0  0
    7.4408   10.3032   24.7679 N   0  0  0  0  0  0  0  0  0  0  0  0
    6.6455   11.1955   25.3722 C   0  0  0  0  0  0  0  0  0  0  0  0
    5.5230   10.6754   26.2342 C   0  0  0  0  0  0  0  0  0  0  0  0
    5.2869    9.3487   26.1030 N   0  0  0  0  0  0  0  0  0  0  0  0
    4.8881   11.4146   26.9668 O   0  0  0  0  0  0  0  0  0  0  0  0
    6.8069   12.5648   25.2459 C   0  0  0  0  0  0  0  0  0  0  0  0
    7.8263   13.0338   24.4352 C   0  0  0  0  0  0  0  0  0  0  0  0
    8.6687   12.1106   23.8312 C   0  0  0  0  0  0  0  0  0  0  0  0
    9.7617   12.5280   23.0382 N   0  0  0  0  0  0  0  0  0  0  0  0
    9.7029   13.5668   22.1686 C   0  0  0  0  0  0  0  0  0  0  0  0
    8.6817   14.1600   21.8627 O   0  0  0  0  0  0  0  0  0  0  0  0
   11.1141   13.9209   21.6417 C   0  0  0  0  0  0  0  0  0  0  0  0
   12.0654   13.5671   22.3316 O   0  0  0  0  0  0  0  0  0  0  0  0
   11.2279   14.6242   20.4814 N   0  0  0  0  0  0  0  0  0  0  0  0
   12.5303   15.2634   20.2853 C   0  0  0  0  0  0  0  0  0  0  0  0
   13.1722   14.9629   18.9456 C   0  0  0  0  0  0  0  0  0  0  0  0
   12.6720   15.8076   17.7875 C   0  0  0  0  0  0  0  0  0  0  0  0
   11.3628   15.2931   17.2540 C   0  0  0  0  0  0  0  0  0  0  0  0
   10.1916   15.4208   18.2459 C   0  0  0  0  0  0  0  0  0  0  0  0
    9.9617   16.8448   18.7761 C   0  0  0  0  0  0  0  0  0  0  0  0
    9.4994   17.6447   17.5545 C   0  0  0  0  0  0  0  0  0  0  0  0
    8.7924   16.6145   16.6429 C   0  0  0  0  0  0  0  0  0  0  0  0
    8.9435   15.2426   17.3511 C   0  0  0  0  0  0  0  0  0  0  0  0
   10.2470   14.4034   19.3982 C   0  0  0  0  0  0  0  0  0  0  0  0
  1  2  1  0
  2  3  2  0
  3  4  1  0
  4  5  1  0
  5  6  1  0
  5  7  2  0
  4  8  2  0
  8  9  1  0
  9 10  2  0
 10 11  1  0
 11 12  1  0
 12 13  2  0
 12 14  1  0
 14 15  2  0
 14 16  1  0
 16 17  1  0
 17 18  1  0
 18 19  1  0
 19 20  1  0
 20 21  1  0
 21 22  1  0
 22 23  1  0
 23 24  1  0
 24 25  1  0
 21 26  1  0
 10  2  1  0
 26 16  1  0
 25 21  1  0
M  END
>  <ref_pdb>  (55) 
x0554_0A

>  <ref_mols>  (55) 
x0310_0A,x0556_0A

>  <original SMILES>  (55) 
Cc1nc(C(N)=O)ccc1NC(=O)C(=O)N1CCCCC2(CCCC2)C1

>  <IC50 (nM)>  (55) 
1449.4058171012725

>  <CNNaffinity>  (55) 
5.83881

>  <rationale>  (55) 
-1

$$$$
Z2963612307
     RDKit          3D

 25 26  0  0  0  0  0  0  0  0999 V2000
    9.5738    9.1646   23.2484 C   0  0  0  0  0  0  0  0  0  0  0  0
    8.8761   10.3809   23.8003 C   0  0  0  0  0  0  0  0  0  0  0  0
    7.7838   10.1757   24.5223 N   0  0  0  0  0  0  0  0  0  0  0  0
    7.1085   11.2180   25.0211 C   0  0  0  0  0  0  0  0  0  0  0  0
    5.8751   10.9228   25.8419 C   0  0  0  0  0  0  0  0  0  0  0  0
    5.6178    9.6052   26.0144 N   0  0  0  0  0  0  0  0  0  0  0  0
    5.1939   11.8163   26.3157 O   0  0  0  0  0  0  0  0  0  0  0  0
    7.5099   12.5320   24.8290 C   0  0  0  0  0  0  0  0  0  0  0  0
    8.6824   12.7601   24.1242 C   0  0  0  0  0  0  0  0  0  0  0  0
    9.3709   11.6809   23.5856 C   0  0  0  0  0  0  0  0  0  0  0  0
   10.5445   11.8596   22.8119 N   0  0  0  0  0  0  0  0  0  0  0  0
   11.5137   12.7755   23.1163 C   0  0  0  0  0  0  0  0  0  0  0  0
   11.5714   13.3222   24.2029 O   0  0  0  0  0  0  0  0  0  0  0  0
   12.4581   13.1447   21.9662 C   0  0  0  0  0  0  0  0  0  0  0  0
   11.7584   14.0833   21.0189 C   0  0  0  0  0  0  0  0  0  0  0  0
   11.2357   15.2900   21.3694 C   0  0  0  0  0  0  0  0  0  0  0  0
   11.4755   16.0264   22.6468 C   0  0  0  0  0  0  0  0  0  0  0  0
   10.4629   15.9076   20.4146 N   0  0  0  0  0  0  0  0  0  0  0  0
   10.4385   15.2183   19.3199 C   0  0  0  0  0  0  0  0  0  0  0  0
    9.4484   15.7111   17.9665 S   0  0  0  0  0  0  0  0  0  0  0  0
   10.7027   15.6512   16.6178 C   0  0  0  0  0  0  0  0  0  0  0  0
   11.2465   14.4484   16.5396 F   0  0  0  0  0  0  0  0  0  0  0  0
   10.0526   15.9339   15.4931 F   0  0  0  0  0  0  0  0  0  0  0  0
   11.6633   16.5427   16.8267 F   0  0  0  0  0  0  0  0  0  0  0  0
   11.4168   13.7671   19.3489 S   0  0  0  0  0  0  0  0  0  0  0  0
  1  2  1  0
  2  3  2  0
  3  4  1  0
  4  5  1  0
  5  6  1  0
  5  7  2  0
  4  8  2  0
  8  9  1  0
  9 10  2  0
 10 11  1  0
 11 12  1  0
 12 13  2  0
 12 14  1  0
 14 15  1  0
 15 16  2  0
 16 17  1  0
 16 18  1  0
 18 19  2  0
 19 20  1  0
 20 21  1  0
 21 22  1  0
 21 23  1  0
 21 24  1  0
 19 25  1  0
 10  2  1  0
 25 15  1  0
M  END
>  <ref_pdb>  (56) 
x0554_0A

>  <ref_mols>  (56) 
x0310_0A,x0556_0A

>  <original SMILES>  (56) 
Cc1nc(C(N)=O)ccc1NC(=O)Cc1sc(SC(F)(F)F)nc1C

>  <IC50 (nM)>  (56) 
1452.7470425811819

>  <CNNaffinity>  (56) 
5.83781

>  <rationale>  (56) 
-1

$$$$
PV_006667053158
     RDKit          3D

 26 28  0  0  0  0  0  0  0  0999 V2000
    9.6343    9.2648   23.2548 C   0  0  0  0  0  0  0  0  0  0  0  0
    8.9075   10.4630   23.8153 C   0  0  0  0  0  0  0  0  0  0  0  0
    7.8303   10.1971   24.5470 N   0  0  0  0  0  0  0  0  0  0  0  0
    7.1216   11.2014   25.0719 C   0  0  0  0  0  0  0  0  0  0  0  0
    5.9152   10.8677   25.9127 C   0  0  0  0  0  0  0  0  0  0  0  0
    5.6698    9.5463   26.0671 N   0  0  0  0  0  0  0  0  0  0  0  0
    5.2379   11.7445   26.4242 O   0  0  0  0  0  0  0  0  0  0  0  0
    7.4571   12.5344   24.8968 C   0  0  0  0  0  0  0  0  0  0  0  0
    8.5685   12.8339   24.1312 C   0  0  0  0  0  0  0  0  0  0  0  0
    9.3130   11.7975   23.5749 C   0  0  0  0  0  0  0  0  0  0  0  0
   10.4661   12.0991   22.8068 N   0  0  0  0  0  0  0  0  0  0  0  0
   10.5516   13.2054   21.9842 C   0  0  0  0  0  0  0  0  0  0  0  0
    9.5671   13.8566   21.6846 O   0  0  0  0  0  0  0  0  0  0  0  0
   11.9569   13.6142   21.5203 C   0  0  2  0  0  0  0  0  0  0  0  0
   12.4882   14.7564   22.4027 C   0  0  0  0  0  0  0  0  0  0  0  0
   11.5274   15.9449   22.3945 C   0  0  0  0  0  0  0  0  0  0  0  0
   11.1037   16.2607   21.0015 C   0  0  0  0  0  0  0  0  0  0  0  0
   10.4456   17.3142   20.5744 N   0  0  0  0  0  0  0  0  0  0  0  0
   10.2744   17.1659   19.2203 N   0  0  0  0  0  0  0  0  0  0  0  0
   10.8416   16.0432   18.8835 C   0  0  0  0  0  0  0  0  0  0  0  0
   10.8472   15.4234   17.5163 C   0  0  0  0  0  0  0  0  0  0  0  0
   12.0707   14.9619   17.1930 F   0  0  0  0  0  0  0  0  0  0  0  0
    9.9977   14.3731   17.4742 F   0  0  0  0  0  0  0  0  0  0  0  0
   10.4686   16.3012   16.5952 F   0  0  0  0  0  0  0  0  0  0  0  0
   11.3900   15.4225   19.9632 N   0  0  0  0  0  0  0  0  0  0  0  0
   11.9412   14.0695   20.0564 C   0  0  0  0  0  0  0  0  0  0  0  0
  1  2  1  0
  2  3  2  0
  3  4  1  0
  4  5  1  0
  5  6  1  0
  5  7  2  0
  4  8  2  0
  8  9  1  0
  9 10  2  0
 10 11  1  0
 11 12  1  0
 12 13  2  0
 14 12  1  1
 14 15  1  0
 15 16  1  0
 16 17  1  0
 17 18  2  0
 18 19  1  0
 19 20  2  0
 20 21  1  0
 21 22  1  0
 21 23  1  0
 21 24  1  0
 20 25  1  0
 25 26  1  0
 10  2  1  0
 26 14  1  0
 25 17  1  0
M  END
>  <ref_pdb>  (57) 
x0554_0A

>  <ref_mols>  (57) 
x0310_0A,x0556_0A

>  <original SMILES>  (57) 
Cc1nc(C(N)=O)ccc1NC(=O)[C@@H]1CCc2nnc(C(F)(F)F)n2C1

>  <IC50 (nM)>  (57) 
1465.3116415890283

>  <CNNaffinity>  (57) 
5.83407

>  <rationale>  (57) 
-1

$$$$
PV_006465844324
     RDKit          3D

 25 26  0  0  0  0  0  0  0  0999 V2000
    8.1600   13.5414   15.9899 C   0  0  0  0  0  0  0  0  0  0  0  0
    8.8862   14.0669   17.2104 C   0  0  0  0  0  0  0  0  0  0  0  0
    9.8882   15.1733   16.9101 C   0  0  0  0  0  0  0  0  0  0  0  0
   10.8500   15.4686   18.0671 C   0  0  1  0  0  0  0  0  0  0  0  0
   10.1254   15.9638   19.3330 C   0  0  0  0  0  0  0  0  0  0  0  0
   11.1623   16.5530   20.2920 C   0  0  0  0  0  0  0  0  0  0  0  0
   11.6462   15.6461   21.4020 C   0  0  0  0  0  0  0  0  0  0  0  0
   12.1443   14.3972   20.8560 N   0  0  0  0  0  0  0  0  0  0  0  0
   11.9940   13.2495   21.5883 C   0  0  0  0  0  0  0  0  0  0  0  0
   12.8545   12.4036   21.7744 O   0  0  0  0  0  0  0  0  0  0  0  0
   10.5586   13.0332   22.1478 C   0  0  0  0  0  0  0  0  0  0  0  0
    9.6032   13.7181   21.8180 O   0  0  0  0  0  0  0  0  0  0  0  0
   10.4830   11.9881   23.0052 N   0  0  0  0  0  0  0  0  0  0  0  0
    9.3186   11.7029   23.7499 C   0  0  0  0  0  0  0  0  0  0  0  0
    8.5876   12.7410   24.3133 C   0  0  0  0  0  0  0  0  0  0  0  0
    7.4502   12.4374   25.0369 C   0  0  0  0  0  0  0  0  0  0  0  0
    7.0885   11.1060   25.1544 C   0  0  0  0  0  0  0  0  0  0  0  0
    5.8501   10.7774   25.9452 C   0  0  0  0  0  0  0  0  0  0  0  0
    5.6168    9.4566   26.1007 N   0  0  0  0  0  0  0  0  0  0  0  0
    5.1454   11.6555   26.4203 O   0  0  0  0  0  0  0  0  0  0  0  0
    7.7901   10.1018   24.6154 N   0  0  0  0  0  0  0  0  0  0  0  0
    8.8850   10.3748   23.9160 C   0  0  0  0  0  0  0  0  0  0  0  0
    9.6188    9.2167   23.2888 C   0  0  0  0  0  0  0  0  0  0  0  0
   12.7568   14.3662   19.5284 C   0  0  0  0  0  0  0  0  0  0  0  0
   11.7593   14.2641   18.3656 C   0  0  0  0  0  0  0  0  0  0  0  0
  1  2  1  0
  2  3  1  0
  4  3  1  6
  4  5  1  0
  5  6  1  0
  6  7  1  0
  7  8  1  0
  8  9  1  0
  9 10  2  0
  9 11  1  0
 11 12  2  0
 11 13  1  0
 13 14  1  0
 14 15  2  0
 15 16  1  0
 16 17  2  0
 17 18  1  0
 18 19  1  0
 18 20  2  0
 17 21  1  0
 21 22  2  0
 22 23  1  0
  8 24  1  0
 24 25  1  0
 25  4  1  0
 22 14  1  0
M  END
>  <ref_pdb>  (58) 
x0554_0A

>  <ref_mols>  (58) 
x0310_0A,x0556_0A

>  <original SMILES>  (58) 
CCC[C@H]1CCCN(C(=O)C(=O)Nc2ccc(C(N)=O)nc2C)CC1

>  <IC50 (nM)>  (58) 
1465.682829116716

>  <CNNaffinity>  (58) 
5.83396

>  <rationale>  (58) 
-1

$$$$
PV_004640876342
     RDKit          3D

 27 30  0  0  0  0  0  0  0  0999 V2000
    9.6428    9.5822   23.5699 C   0  0  0  0  0  0  0  0  0  0  0  0
    8.6504   10.5345   24.1810 C   0  0  0  0  0  0  0  0  0  0  0  0
    7.6470    9.9850   24.8649 N   0  0  0  0  0  0  0  0  0  0  0  0
    6.6780   10.7703   25.3948 C   0  0  0  0  0  0  0  0  0  0  0  0
    5.4969   10.1232   26.1659 C   0  0  0  0  0  0  0  0  0  0  0  0
    5.2281   10.6445   27.4168 N   0  0  0  0  0  0  0  0  0  0  0  0
    4.7512    9.2630   25.7439 O   0  0  0  0  0  0  0  0  0  0  0  0
    6.7174   12.1656   25.2662 C   0  0  0  0  0  0  0  0  0  0  0  0
    7.7488   12.7522   24.5398 C   0  0  0  0  0  0  0  0  0  0  0  0
    8.7547   11.9464   24.0093 C   0  0  0  0  0  0  0  0  0  0  0  0
    9.8383   12.5632   23.3027 N   0  0  0  0  0  0  0  0  0  0  0  0
    9.6385   13.5773   22.3841 C   0  0  0  0  0  0  0  0  0  0  0  0
    8.5357   13.8373   21.9394 O   0  0  0  0  0  0  0  0  0  0  0  0
   10.9352   14.3781   21.9288 C   0  0  0  0  0  0  0  0  0  0  0  0
   11.9596   14.4157   22.5863 O   0  0  0  0  0  0  0  0  0  0  0  0
   10.8117   15.1379   20.7480 N   0  0  0  0  0  0  0  0  0  0  0  0
   10.8510   16.5875   20.7464 C   0  0  0  0  0  0  0  0  0  0  0  0
   11.2539   16.8641   19.2974 C   0  0  0  0  0  0  0  0  0  0  0  0
   10.7515   15.7258   18.4276 C   0  0  2  0  0  0  0  0  0  0  0  0
   11.5604   15.6887   17.1192 C   0  0  0  0  0  0  0  0  0  0  0  0
   10.9996   14.7573   16.0288 C   0  0  0  0  0  0  0  0  0  0  0  0
    9.7420   14.1946   16.3574 O   0  0  0  0  0  0  0  0  0  0  0  0
    8.8033   15.1419   16.8303 C   0  0  0  0  0  0  0  0  0  0  0  0
    9.2361   15.8190   18.1495 C   0  0  0  0  0  0  0  0  0  0  0  0
   11.0227   14.6029   19.4293 C   0  0  2  0  0  0  0  0  0  0  0  0
   10.5653   13.2317   19.1932 C   0  0  0  0  0  0  0  0  0  0  0  0
   12.0468   13.5309   19.3174 C   0  0  0  0  0  0  0  0  0  0  0  0
  1  2  1  0
  2  3  2  0
  3  4  1  0
  4  5  1  0
  5  6  1  0
  5  7  2  0
  4  8  2  0
  8  9  1  0
  9 10  2  0
 10 11  1  0
 11 12  1  0
 12 13  2  0
 12 14  1  0
 14 15  2  0
 14 16  1  0
 16 17  1  0
 17 18  1  0
 19 18  1  1
 19 20  1  0
 20 21  1  0
 21 22  1  0
 22 23  1  0
 23 24  1  0
 19 25  1  0
 25 26  1  6
 26 27  1  0
 10  2  1  0
 25 16  1  0
 24 19  1  0
 27 25  1  0
M  END
>  <ref_pdb>  (59) 
x0554_0A

>  <ref_mols>  (59) 
x0310_0A,x0556_0A

>  <original SMILES>  (59) 
Cc1nc(C(N)=O)ccc1NC(=O)C(=O)N1CC[C@]2(CCOCC2)[C@@]12CC2

>  <IC50 (nM)>  (59) 
1468.5880838064047

>  <CNNaffinity>  (59) 
5.8331

>  <rationale>  (59) 
-1

$$$$
PV_002348888069
     RDKit          3D

 26 28  0  0  0  0  0  0  0  0999 V2000
    9.6868    9.0865   23.1888 C   0  0  0  0  0  0  0  0  0  0  0  0
    8.9500   10.2710   23.7599 C   0  0  0  0  0  0  0  0  0  0  0  0
    7.8452   10.0244   24.4584 N   0  0  0  0  0  0  0  0  0  0  0  0
    7.1617   11.0448   24.9908 C   0  0  0  0  0  0  0  0  0  0  0  0
    5.9229   10.7622   25.8127 C   0  0  0  0  0  0  0  0  0  0  0  0
    5.6685    9.4566   26.0689 N   0  0  0  0  0  0  0  0  0  0  0  0
    5.2323   11.6702   26.2466 O   0  0  0  0  0  0  0  0  0  0  0  0
    7.5605   12.3662   24.8527 C   0  0  0  0  0  0  0  0  0  0  0  0
    8.7342   12.6377   24.1749 C   0  0  0  0  0  0  0  0  0  0  0  0
    9.4363   11.5869   23.6003 C   0  0  0  0  0  0  0  0  0  0  0  0
   10.6249   11.8468   22.8710 N   0  0  0  0  0  0  0  0  0  0  0  0
   11.5208   12.8169   23.2379 C   0  0  0  0  0  0  0  0  0  0  0  0
   11.4129   13.4635   24.2635 O   0  0  0  0  0  0  0  0  0  0  0  0
   12.6649   13.0881   22.2649 C   0  0  0  0  0  0  0  0  0  0  0  0
   12.2405   13.8651   21.0545 C   0  0  0  0  0  0  0  0  0  0  0  0
   12.5210   13.5414   19.8214 N   0  0  0  0  0  0  0  0  0  0  0  0
   11.8750   14.4277   19.0034 N   0  0  0  0  0  0  0  0  0  0  0  0
   11.2205   15.2708   19.7597 C   0  0  0  0  0  0  0  0  0  0  0  0
   10.3573   16.3419   19.2297 C   0  0  0  0  0  0  0  0  0  0  0  0
    9.4279   17.0157   20.0208 C   0  0  0  0  0  0  0  0  0  0  0  0
    8.7418   18.1123   19.5212 C   0  0  0  0  0  0  0  0  0  0  0  0
    8.9262   18.5139   18.2023 C   0  0  0  0  0  0  0  0  0  0  0  0
    9.7720   17.7821   17.3736 C   0  0  0  0  0  0  0  0  0  0  0  0
   10.4753   16.6960   17.8809 C   0  0  0  0  0  0  0  0  0  0  0  0
   11.4585   14.9840   21.0855 N   0  0  0  0  0  0  0  0  0  0  0  0
   11.1903   15.7803   22.2735 C   0  0  0  0  0  0  0  0  0  0  0  0
  1  2  1  0
  2  3  2  0
  3  4  1  0
  4  5  1  0
  5  6  1  0
  5  7  2  0
  4  8  2  0
  8  9  1  0
  9 10  2  0
 10 11  1  0
 11 12  1  0
 12 13  2  0
 12 14  1  0
 14 15  1  0
 15 16  2  0
 16 17  1  0
 17 18  2  0
 18 19  1  0
 19 20  2  0
 20 21  1  0
 21 22  2  0
 22 23  1  0
 23 24  2  0
 18 25  1  0
 25 26  1  0
 10  2  1  0
 25 15  1  0
 24 19  1  0
M  END
>  <ref_pdb>  (60) 
x0554_0A

>  <ref_mols>  (60) 
x0310_0A,x0556_0A

>  <original SMILES>  (60) 
Cc1nc(C(N)=O)ccc1NC(=O)Cc1nnc(-c2ccccc2)n1C

>  <IC50 (nM)>  (60) 
1480.8463526223143

>  <CNNaffinity>  (60) 
5.82949

>  <rationale>  (60) 
-1

$$$$
PV_005597907196
     RDKit          3D

 28 29  0  0  0  0  0  0  0  0999 V2000
    9.8755    9.1946   23.2297 C   0  0  0  0  0  0  0  0  0  0  0  0
    9.1291   10.3659   23.8170 C   0  0  0  0  0  0  0  0  0  0  0  0
    7.9867   10.1022   24.4372 N   0  0  0  0  0  0  0  0  0  0  0  0
    7.2709   11.0955   24.9694 C   0  0  0  0  0  0  0  0  0  0  0  0
    5.9956   10.7158   25.6857 C   0  0  0  0  0  0  0  0  0  0  0  0
    5.6259   11.6017   26.6686 N   0  0  0  0  0  0  0  0  0  0  0  0
    5.3254    9.7402   25.4205 O   0  0  0  0  0  0  0  0  0  0  0  0
    7.6649   12.4257   24.8758 C   0  0  0  0  0  0  0  0  0  0  0  0
    8.8667   12.7146   24.2604 C   0  0  0  0  0  0  0  0  0  0  0  0
    9.6234   11.6804   23.7244 C   0  0  0  0  0  0  0  0  0  0  0  0
   10.8515   11.9871   23.0889 N   0  0  0  0  0  0  0  0  0  0  0  0
   11.5786   13.0759   23.5155 C   0  0  0  0  0  0  0  0  0  0  0  0
   11.6134   13.4433   24.6678 O   0  0  0  0  0  0  0  0  0  0  0  0
   12.3914   13.8321   22.4354 C   0  0  0  0  0  0  0  0  0  0  0  0
   13.4420   14.3530   22.7457 O   0  0  0  0  0  0  0  0  0  0  0  0
   11.8011   13.9368   21.1878 N   0  0  0  0  0  0  0  0  0  0  0  0
   12.6863   14.4066   20.1291 C   0  0  0  0  0  0  0  0  0  0  0  0
   10.3747   14.2965   21.1127 C   0  0  0  0  0  0  0  0  0  0  0  0
   10.0361   15.6355   21.8204 C   0  0  1  0  0  0  0  0  0  0  0  0
   10.4532   16.8443   20.9736 C   0  0  0  0  0  0  0  0  0  0  0  0
    8.5748   15.7114   22.2232 C   0  0  0  0  0  0  0  0  0  0  0  0
    7.5362   15.5679   21.3053 C   0  0  0  0  0  0  0  0  0  0  0  0
    6.1991   15.5843   21.6945 C   0  0  0  0  0  0  0  0  0  0  0  0
    5.9012   15.7667   23.0324 C   0  0  0  0  0  0  0  0  0  0  0  0
    4.6150   15.7573   23.4200 F   0  0  0  0  0  0  0  0  0  0  0  0
    6.8864   15.9417   23.9891 C   0  0  0  0  0  0  0  0  0  0  0  0
    8.2002   15.9243   23.5498 C   0  0  0  0  0  0  0  0  0  0  0  0
    9.1574   16.0692   24.4886 F   0  0  0  0  0  0  0  0  0  0  0  0
  1  2  1  0
  2  3  2  0
  3  4  1  0
  4  5  1  0
  5  6  1  0
  5  7  2  0
  4  8  2  0
  8  9  1  0
  9 10  2  0
 10 11  1  0
 11 12  1  0
 12 13  2  0
 12 14  1  0
 14 15  2  0
 14 16  1  0
 16 17  1  0
 16 18  1  0
 18 19  1  0
 19 20  1  6
 19 21  1  0
 21 22  2  0
 22 23  1  0
 23 24  2  0
 24 25  1  0
 24 26  1  0
 26 27  2  0
 27 28  1  0
 10  2  1  0
 27 21  1  0
M  END
>  <ref_pdb>  (61) 
x0554_0A

>  <ref_mols>  (61) 
x0310_0A,x0556_0A

>  <original SMILES>  (61) 
Cc1nc(C(N)=O)ccc1NC(=O)C(=O)N(C)C[C@@H](C)c1ccc(F)cc1F

>  <IC50 (nM)>  (61) 
1496.4423829693317

>  <CNNaffinity>  (61) 
5.82494

>  <rationale>  (61) 
-1

$$$$
Z4929912873
     RDKit          3D

 27 30  0  0  0  0  0  0  0  0999 V2000
    9.3647    9.4936   23.2178 C   0  0  0  0  0  0  0  0  0  0  0  0
    8.5978   10.6364   23.8343 C   0  0  0  0  0  0  0  0  0  0  0  0
    7.5355   10.2922   24.5506 N   0  0  0  0  0  0  0  0  0  0  0  0
    6.7444   11.2363   25.0685 C   0  0  0  0  0  0  0  0  0  0  0  0
    5.6085   10.7846   25.9533 C   0  0  0  0  0  0  0  0  0  0  0  0
    5.4723    9.4433   26.0560 N   0  0  0  0  0  0  0  0  0  0  0  0
    4.8868   11.5859   26.5256 O   0  0  0  0  0  0  0  0  0  0  0  0
    6.9170   12.5908   24.8208 C   0  0  0  0  0  0  0  0  0  0  0  0
    8.0216   12.9730   24.0782 C   0  0  0  0  0  0  0  0  0  0  0  0
    8.9218   11.9984   23.6639 C   0  0  0  0  0  0  0  0  0  0  0  0
   10.1777   12.4006   23.1195 N   0  0  0  0  0  0  0  0  0  0  0  0
   11.3959   12.1453   23.7434 C   0  0  0  0  0  0  0  0  0  0  0  0
   11.5514   11.4400   24.7089 O   0  0  0  0  0  0  0  0  0  0  0  0
   12.4454   12.9712   23.0042 C   0  0  2  0  0  0  0  0  0  0  0  0
   13.2850   13.8435   23.9573 C   0  0  0  0  0  0  0  0  0  0  0  0
   14.0974   13.0424   24.9532 C   0  0  0  0  0  0  0  0  0  0  0  0
   15.1243   12.1966   24.5335 C   0  0  0  0  0  0  0  0  0  0  0  0
   15.8027   11.3866   25.4370 C   0  0  0  0  0  0  0  0  0  0  0  0
   15.4952   11.4435   26.7911 C   0  0  0  0  0  0  0  0  0  0  0  0
   14.5177   12.3267   27.2365 C   0  0  0  0  0  0  0  0  0  0  0  0
   13.8208   13.1092   26.3204 C   0  0  0  0  0  0  0  0  0  0  0  0
   11.6282   13.7528   22.0927 N   0  0  0  0  0  0  0  0  0  0  0  0
   12.2449   14.4411   20.9901 C   0  0  0  0  0  0  0  0  0  0  0  0
   11.4904   15.4094   20.1307 C   0  0  0  0  0  0  0  0  0  0  0  0
   11.9334   14.0939   19.5629 C   0  0  0  0  0  0  0  0  0  0  0  0
   10.3030   13.3996   22.1455 C   0  0  0  0  0  0  0  0  0  0  0  0
    9.3736   13.8490   21.5013 O   0  0  0  0  0  0  0  0  0  0  0  0
  1  2  1  0
  2  3  2  0
  3  4  1  0
  4  5  1  0
  5  6  1  0
  5  7  2  0
  4  8  2  0
  8  9  1  0
  9 10  2  0
 10 11  1  0
 11 12  1  0
 12 13  2  0
 12 14  1  0
 14 15  1  1
 15 16  1  0
 16 17  2  0
 17 18  1  0
 18 19  2  0
 19 20  1  0
 20 21  2  0
 14 22  1  0
 22 23  1  0
 23 24  1  0
 24 25  1  0
 22 26  1  0
 26 27  2  0
 10  2  1  0
 26 11  1  0
 21 16  1  0
 25 23  1  0
M  END
>  <ref_pdb>  (62) 
x0554_0A

>  <ref_mols>  (62) 
x0310_0A,x0556_0A

>  <original SMILES>  (62) 
Cc1nc(C(N)=O)ccc1N1C(=O)[C@H](Cc2ccccc2)N(C2CC2)C1=O

>  <IC50 (nM)>  (62) 
1498.0972265445323

>  <CNNaffinity>  (62) 
5.82446

>  <rationale>  (62) 
-1

$$$$
Z3368369395
     RDKit          3D

 25 27  0  0  0  0  0  0  0  0999 V2000
    9.7320    9.0835   23.1215 C   0  0  0  0  0  0  0  0  0  0  0  0
    9.0000   10.2588   23.7095 C   0  0  0  0  0  0  0  0  0  0  0  0
    7.9154   10.0033   24.4184 N   0  0  0  0  0  0  0  0  0  0  0  0
    7.2229   11.0114   24.9531 C   0  0  0  0  0  0  0  0  0  0  0  0
    6.0431   10.5967   25.7982 C   0  0  0  0  0  0  0  0  0  0  0  0
    5.0341   11.5286   25.8560 N   0  0  0  0  0  0  0  0  0  0  0  0
    6.0087    9.5579   26.4216 O   0  0  0  0  0  0  0  0  0  0  0  0
    7.6014   12.3429   24.8025 C   0  0  0  0  0  0  0  0  0  0  0  0
    8.7646   12.6226   24.0996 C   0  0  0  0  0  0  0  0  0  0  0  0
    9.4851   11.5692   23.5547 C   0  0  0  0  0  0  0  0  0  0  0  0
   10.6948   11.7715   22.8554 N   0  0  0  0  0  0  0  0  0  0  0  0
   11.6313   12.6910   23.2596 C   0  0  0  0  0  0  0  0  0  0  0  0
   11.6143   13.2140   24.3539 O   0  0  0  0  0  0  0  0  0  0  0  0
   12.6651   13.0545   22.2035 C   0  0  0  0  0  0  0  0  0  0  0  0
   11.9867   13.8974   21.1661 C   0  0  0  0  0  0  0  0  0  0  0  0
   10.9716   14.6378   21.4902 N   0  0  0  0  0  0  0  0  0  0  0  0
   10.3905   15.2165   20.3938 C   0  0  0  0  0  0  0  0  0  0  0  0
    9.1695   16.0498   20.6559 C   0  0  0  0  0  0  0  0  0  0  0  0
    8.0578   15.2515   21.3945 C   0  0  0  0  0  0  0  0  0  0  0  0
    7.5978   15.9203   22.6937 C   0  0  0  0  0  0  0  0  0  0  0  0
    7.2173   17.3915   22.4878 C   0  0  0  0  0  0  0  0  0  0  0  0
    8.2816   18.1420   21.6495 C   0  0  0  0  0  0  0  0  0  0  0  0
    9.5428   17.3096   21.4466 C   0  0  0  0  0  0  0  0  0  0  0  0
   11.0197   14.9699   19.2096 C   0  0  0  0  0  0  0  0  0  0  0  0
   12.3871   13.9402   19.4754 S   0  0  0  0  0  0  0  0  0  0  0  0
  1  2  1  0
  2  3  2  0
  3  4  1  0
  4  5  1  0
  5  6  1  0
  5  7  2  0
  4  8  2  0
  8  9  1  0
  9 10  2  0
 10 11  1  0
 11 12  1  0
 12 13  2  0
 12 14  1  0
 14 15  1  0
 15 16  2  0
 16 17  1  0
 17 18  1  0
 18 19  1  0
 19 20  1  0
 20 21  1  0
 21 22  1  0
 22 23  1  0
 17 24  2  0
 24 25  1  0
 10  2  1  0
 25 15  1  0
 23 18  1  0
M  END
>  <ref_pdb>  (63) 
x0554_0A

>  <ref_mols>  (63) 
x0310_0A,x0556_0A

>  <original SMILES>  (63) 
Cc1nc(C(N)=O)ccc1NC(=O)Cc1nc(C2CCCCC2)cs1

>  <IC50 (nM)>  (63) 
1499.650304380464

>  <CNNaffinity>  (63) 
5.82401

>  <rationale>  (63) 
-1

$$$$
PV_002111057315
     RDKit          3D

 26 28  0  0  0  0  0  0  0  0999 V2000
    8.9048   17.4792   15.7478 C   0  0  0  0  0  0  0  0  0  0  0  0
    9.5326   17.4864   17.0957 C   0  0  0  0  0  0  0  0  0  0  0  0
   10.2600   16.5365   17.5869 N   0  0  0  0  0  0  0  0  0  0  0  0
   10.5688   16.8022   18.9107 C   0  0  0  0  0  0  0  0  0  0  0  0
   11.2861   15.8113   19.7289 C   0  0  0  0  0  0  0  0  0  0  0  0
   11.8645   14.6632   19.1781 C   0  0  0  0  0  0  0  0  0  0  0  0
   12.4378   13.7024   20.0016 C   0  0  0  0  0  0  0  0  0  0  0  0
   12.4196   13.8550   21.3897 C   0  0  0  0  0  0  0  0  0  0  0  0
   12.8276   12.7914   22.3828 C   0  0  0  0  0  0  0  0  0  0  0  0
   11.6639   12.5905   23.3500 C   0  0  0  0  0  0  0  0  0  0  0  0
   11.5938   13.1841   24.4120 O   0  0  0  0  0  0  0  0  0  0  0  0
   10.6640   11.7653   22.9054 N   0  0  0  0  0  0  0  0  0  0  0  0
    9.4454   11.5832   23.5993 C   0  0  0  0  0  0  0  0  0  0  0  0
    8.7554   12.6632   24.1333 C   0  0  0  0  0  0  0  0  0  0  0  0
    7.5774   12.4306   24.8243 C   0  0  0  0  0  0  0  0  0  0  0  0
    7.1573   11.1189   24.9789 C   0  0  0  0  0  0  0  0  0  0  0  0
    5.9229   10.8512   25.8073 C   0  0  0  0  0  0  0  0  0  0  0  0
    5.6740    9.5419   26.0365 N   0  0  0  0  0  0  0  0  0  0  0  0
    5.2430   11.7612   26.2538 O   0  0  0  0  0  0  0  0  0  0  0  0
    7.8156   10.0738   24.4594 N   0  0  0  0  0  0  0  0  0  0  0  0
    8.9276   10.2839   23.7649 C   0  0  0  0  0  0  0  0  0  0  0  0
    9.6525    9.0888   23.1977 C   0  0  0  0  0  0  0  0  0  0  0  0
   11.9006   15.0315   21.9244 C   0  0  0  0  0  0  0  0  0  0  0  0
   11.3370   15.9897   21.1116 C   0  0  0  0  0  0  0  0  0  0  0  0
   10.0838   17.9789   19.3933 C   0  0  0  0  0  0  0  0  0  0  0  0
    9.2218   18.8150   18.1720 S   0  0  0  0  0  0  0  0  0  0  0  0
  1  2  1  0
  2  3  2  0
  3  4  1  0
  4  5  1  0
  5  6  2  0
  6  7  1  0
  7  8  2  0
  8  9  1  0
  9 10  1  0
 10 11  2  0
 10 12  1  0
 12 13  1  0
 13 14  2  0
 14 15  1  0
 15 16  2  0
 16 17  1  0
 17 18  1  0
 17 19  2  0
 16 20  1  0
 20 21  2  0
 21 22  1  0
  8 23  1  0
 23 24  2  0
  4 25  2  0
 25 26  1  0
 26  2  1  0
 24  5  1  0
 21 13  1  0
M  END
>  <ref_pdb>  (64) 
x0554_0A

>  <ref_mols>  (64) 
x0310_0A,x0556_0A

>  <original SMILES>  (64) 
Cc1nc(-c2ccc(CC(=O)Nc3ccc(C(N)=O)nc3C)cc2)cs1

>  <IC50 (nM)>  (64) 
1501.9310647918153

>  <CNNaffinity>  (64) 
5.82335

>  <rationale>  (64) 
-1

$$$$
PV_007165131759
     RDKit          3D

 25 26  0  0  0  0  0  0  0  0999 V2000
    9.6785    9.1805   23.1834 C   0  0  0  0  0  0  0  0  0  0  0  0
    8.9086   10.3637   23.7115 C   0  0  0  0  0  0  0  0  0  0  0  0
    7.8133   10.1081   24.4204 N   0  0  0  0  0  0  0  0  0  0  0  0
    7.1187   11.1213   24.9490 C   0  0  0  0  0  0  0  0  0  0  0  0
    5.9266   10.8103   25.8222 C   0  0  0  0  0  0  0  0  0  0  0  0
    5.7198    9.4947   26.0852 N   0  0  0  0  0  0  0  0  0  0  0  0
    5.2359   11.7037   26.2829 O   0  0  0  0  0  0  0  0  0  0  0  0
    7.4650   12.4484   24.7490 C   0  0  0  0  0  0  0  0  0  0  0  0
    8.5902   12.7345   24.0002 C   0  0  0  0  0  0  0  0  0  0  0  0
    9.3539   11.6831   23.5139 C   0  0  0  0  0  0  0  0  0  0  0  0
   10.5828   11.9560   22.8663 N   0  0  0  0  0  0  0  0  0  0  0  0
   11.3922   12.9753   23.2640 C   0  0  0  0  0  0  0  0  0  0  0  0
   11.2069   13.6989   24.2191 O   0  0  0  0  0  0  0  0  0  0  0  0
   12.5735   13.2618   22.3159 C   0  0  0  0  0  0  0  0  0  0  0  0
   13.0725   12.1008   21.8023 F   0  0  0  0  0  0  0  0  0  0  0  0
   13.5201   13.8310   23.0967 F   0  0  0  0  0  0  0  0  0  0  0  0
   12.1386   14.1742   21.2097 C   0  0  0  0  0  0  0  0  0  0  0  0
   11.4214   15.3203   21.3586 C   0  0  0  0  0  0  0  0  0  0  0  0
   10.9330   15.8818   20.2093 N   0  0  0  0  0  0  0  0  0  0  0  0
   11.2860   15.1673   19.1867 C   0  0  0  0  0  0  0  0  0  0  0  0
   10.7397   15.3980   17.7975 C   0  0  0  0  0  0  0  0  0  0  0  0
    9.9637   14.3636   17.4294 F   0  0  0  0  0  0  0  0  0  0  0  0
   10.0024   16.5118   17.7432 F   0  0  0  0  0  0  0  0  0  0  0  0
   11.7120   15.5021   16.8826 F   0  0  0  0  0  0  0  0  0  0  0  0
   12.3186   13.8038   19.5344 S   0  0  0  0  0  0  0  0  0  0  0  0
  1  2  1  0
  2  3  2  0
  3  4  1  0
  4  5  1  0
  5  6  1  0
  5  7  2  0
  4  8  2  0
  8  9  1  0
  9 10  2  0
 10 11  1  0
 11 12  1  0
 12 13  2  0
 12 14  1  0
 14 15  1  0
 14 16  1  0
 14 17  1  0
 17 18  2  0
 18 19  1  0
 19 20  2  0
 20 21  1  0
 21 22  1  0
 21 23  1  0
 21 24  1  0
 20 25  1  0
 10  2  1  0
 25 17  1  0
M  END
>  <ref_pdb>  (65) 
x0554_0A

>  <ref_mols>  (65) 
x0310_0A,x0556_0A

>  <original SMILES>  (65) 
Cc1nc(C(N)=O)ccc1NC(=O)C(F)(F)c1cnc(C(F)(F)F)s1

>  <IC50 (nM)>  (65) 
1503.0727454382247

>  <CNNaffinity>  (65) 
5.82302

>  <rationale>  (65) 
-1

$$$$
Z2963611264
     RDKit          3D

 26 28  0  0  0  0  0  0  0  0999 V2000
    9.3255    8.8904   23.7246 C   0  0  0  0  0  0  0  0  0  0  0  0
    8.6268   10.0643   24.3617 C   0  0  0  0  0  0  0  0  0  0  0  0
    7.4752    9.8232   24.9614 N   0  0  0  0  0  0  0  0  0  0  0  0
    6.7707   10.8321   25.4768 C   0  0  0  0  0  0  0  0  0  0  0  0
    5.4477   10.4701   26.0939 C   0  0  0  0  0  0  0  0  0  0  0  0
    4.5184   11.4851   26.0511 N   0  0  0  0  0  0  0  0  0  0  0  0
    5.2309    9.4033   26.6206 O   0  0  0  0  0  0  0  0  0  0  0  0
    7.2332   12.1417   25.4828 C   0  0  0  0  0  0  0  0  0  0  0  0
    8.4690   12.4042   24.9210 C   0  0  0  0  0  0  0  0  0  0  0  0
    9.1792   11.3589   24.3440 C   0  0  0  0  0  0  0  0  0  0  0  0
   10.4315   11.5813   23.7337 N   0  0  0  0  0  0  0  0  0  0  0  0
   11.3786   12.4131   24.2891 C   0  0  0  0  0  0  0  0  0  0  0  0
   11.3021   12.7976   25.4410 O   0  0  0  0  0  0  0  0  0  0  0  0
   12.4473   12.9045   23.3425 C   0  0  0  0  0  0  0  0  0  0  0  0
   11.8820   14.1232   22.6025 C   0  0  0  0  0  0  0  0  0  0  0  0
   12.8547   14.7341   21.6077 C   0  0  0  0  0  0  0  0  0  0  0  0
   12.2903   15.9565   20.8689 C   0  0  0  0  0  0  0  0  0  0  0  0
   11.3385   15.5717   19.7724 C   0  0  0  0  0  0  0  0  0  0  0  0
   11.7355   15.1703   18.6150 N   0  0  0  0  0  0  0  0  0  0  0  0
   10.6607   14.8043   17.8159 C   0  0  0  0  0  0  0  0  0  0  0  0
   10.7579   14.2534   16.5322 C   0  0  0  0  0  0  0  0  0  0  0  0
    9.6047   13.8513   15.8855 C   0  0  0  0  0  0  0  0  0  0  0  0
    8.3487   14.0312   16.4781 C   0  0  0  0  0  0  0  0  0  0  0  0
    8.2322   14.5898   17.7376 C   0  0  0  0  0  0  0  0  0  0  0  0
    9.3971   14.9623   18.4065 C   0  0  0  0  0  0  0  0  0  0  0  0
    9.5934   15.5907   20.0165 S   0  0  0  0  0  0  0  0  0  0  0  0
  1  2  1  0
  2  3  2  0
  3  4  1  0
  4  5  1  0
  5  6  1  0
  5  7  2  0
  4  8  2  0
  8  9  1  0
  9 10  2  0
 10 11  1  0
 11 12  1  0
 12 13  2  0
 12 14  1  0
 14 15  1  0
 15 16  1  0
 16 17  1  0
 17 18  1  0
 18 19  2  0
 19 20  1  0
 20 21  2  0
 21 22  1  0
 22 23  2  0
 23 24  1  0
 24 25  2  0
 25 26  1  0
 10  2  1  0
 26 18  1  0
 25 20  1  0
M  END
>  <ref_pdb>  (66) 
x0554_0A

>  <ref_mols>  (66) 
x0310_0A,x0556_0A

>  <original SMILES>  (66) 
Cc1nc(C(N)=O)ccc1NC(=O)CCCCc1nc2ccccc2s1

>  <IC50 (nM)>  (66) 
1504.111390001244

>  <CNNaffinity>  (66) 
5.82272

>  <rationale>  (66) 
-1

$$$$
PV_006826917046
     RDKit          3D

 28 31  0  0  0  0  0  0  0  0999 V2000
    9.5689    9.4305   23.1453 C   0  0  0  0  0  0  0  0  0  0  0  0
    8.7400   10.5604   23.7128 C   0  0  0  0  0  0  0  0  0  0  0  0
    7.6928   10.2067   24.4446 N   0  0  0  0  0  0  0  0  0  0  0  0
    6.8828   11.1445   24.9409 C   0  0  0  0  0  0  0  0  0  0  0  0
    5.7125   10.6540   25.7615 C   0  0  0  0  0  0  0  0  0  0  0  0
    5.3288   11.5243   26.7482 N   0  0  0  0  0  0  0  0  0  0  0  0
    5.1291    9.6079   25.5629 O   0  0  0  0  0  0  0  0  0  0  0  0
    7.0651   12.5053   24.6974 C   0  0  0  0  0  0  0  0  0  0  0  0
    8.1620   12.8953   23.9507 C   0  0  0  0  0  0  0  0  0  0  0  0
    9.0341   11.9197   23.4898 C   0  0  0  0  0  0  0  0  0  0  0  0
   10.2732   12.2981   22.9021 N   0  0  0  0  0  0  0  0  0  0  0  0
   10.4093   13.3213   21.9404 C   0  0  0  0  0  0  0  0  0  0  0  0
    9.5291   13.7697   21.2402 O   0  0  0  0  0  0  0  0  0  0  0  0
   11.7174   13.7065   21.9857 N   0  0  0  0  0  0  0  0  0  0  0  0
   12.5424   12.9041   22.8673 C   0  0  1  0  0  0  0  0  0  0  0  0
   13.3836   13.7555   23.8321 C   0  0  0  0  0  0  0  0  0  0  0  0
   14.2035   12.9555   24.7973 C   0  0  0  0  0  0  0  0  0  0  0  0
   15.2646   12.1541   24.5031 C   0  0  0  0  0  0  0  0  0  0  0  0
   15.7691   11.5525   25.6373 N   0  0  0  0  0  0  0  0  0  0  0  0
   16.9769   10.7612   25.6615 C   0  0  0  0  0  0  0  0  0  0  0  0
   15.0332   11.9969   26.7208 C   0  0  0  0  0  0  0  0  0  0  0  0
   15.1498   11.7202   28.0888 C   0  0  0  0  0  0  0  0  0  0  0  0
   14.2556   12.3386   28.9458 C   0  0  0  0  0  0  0  0  0  0  0  0
   13.2684   13.2191   28.4643 C   0  0  0  0  0  0  0  0  0  0  0  0
   13.1351   13.4612   27.1132 C   0  0  0  0  0  0  0  0  0  0  0  0
   14.0334   12.8662   26.2219 C   0  0  0  0  0  0  0  0  0  0  0  0
   11.4699   12.0904   23.5890 C   0  0  0  0  0  0  0  0  0  0  0  0
   11.5733   11.4389   24.6012 O   0  0  0  0  0  0  0  0  0  0  0  0
  1  2  1  0
  2  3  2  0
  3  4  1  0
  4  5  1  0
  5  6  1  0
  5  7  2  0
  4  8  2  0
  8  9  1  0
  9 10  2  0
 10 11  1  0
 11 12  1  0
 12 13  2  0
 12 14  1  0
 14 15  1  0
 15 16  1  1
 16 17  1  0
 17 18  2  0
 18 19  1  0
 19 20  1  0
 19 21  1  0
 21 22  2  0
 22 23  1  0
 23 24  2  0
 24 25  1  0
 25 26  2  0
 15 27  1  0
 27 28  2  0
 10  2  1  0
 27 11  1  0
 26 17  1  0
 26 21  1  0
M  END
>  <ref_pdb>  (67) 
x0554_0A

>  <ref_mols>  (67) 
x0310_0A,x0556_0A

>  <original SMILES>  (67) 
Cc1nc(C(N)=O)ccc1N1C(=O)N[C@@H](Cc2cn(C)c3ccccc23)C1=O

>  <IC50 (nM)>  (67) 
1506.6417574958534

>  <CNNaffinity>  (67) 
5.82199

>  <rationale>  (67) 
-1

$$$$
PV_004330561620
     RDKit          3D

 27 29  0  0  0  0  0  0  0  0999 V2000
   10.8475   16.4199   20.1897 C   0  0  0  0  0  0  0  0  0  0  0  0
   11.8113   15.8616   20.9162 C   0  0  0  0  0  0  0  0  0  0  0  0
   12.0565   14.3692   20.9530 C   0  0  0  0  0  0  0  0  0  0  0  0
   11.5393   13.7353   22.1654 N   0  0  0  0  0  0  0  0  0  0  0  0
   10.2176   13.3889   22.2473 C   0  0  0  0  0  0  0  0  0  0  0  0
    9.2970   13.8081   21.5748 O   0  0  0  0  0  0  0  0  0  0  0  0
   10.1018   12.4231   23.2531 N   0  0  0  0  0  0  0  0  0  0  0  0
    8.8540   12.0194   23.7971 C   0  0  0  0  0  0  0  0  0  0  0  0
    7.9380   12.9840   24.1929 C   0  0  0  0  0  0  0  0  0  0  0  0
    6.8193   12.5889   24.9050 C   0  0  0  0  0  0  0  0  0  0  0  0
    6.6591   11.2331   25.1508 C   0  0  0  0  0  0  0  0  0  0  0  0
    5.4944   10.7641   25.9888 C   0  0  0  0  0  0  0  0  0  0  0  0
    5.3664    9.4189   26.0641 N   0  0  0  0  0  0  0  0  0  0  0  0
    4.7440   11.5486   26.5423 O   0  0  0  0  0  0  0  0  0  0  0  0
    7.4783   10.2997   24.6556 N   0  0  0  0  0  0  0  0  0  0  0  0
    8.5449   10.6567   23.9542 C   0  0  0  0  0  0  0  0  0  0  0  0
    9.3378    9.5431   23.3189 C   0  0  0  0  0  0  0  0  0  0  0  0
   11.3305   12.1494   23.8434 C   0  0  0  0  0  0  0  0  0  0  0  0
   11.5074   11.4270   24.7943 O   0  0  0  0  0  0  0  0  0  0  0  0
   12.3726   12.9486   23.0640 C   0  0  2  0  0  0  0  0  0  0  0  0
   13.2944   13.7996   23.9544 C   0  0  0  0  0  0  0  0  0  0  0  0
   14.1306   12.9733   24.9076 C   0  0  0  0  0  0  0  0  0  0  0  0
   15.1491   12.1374   24.4524 C   0  0  0  0  0  0  0  0  0  0  0  0
   15.8570   11.3187   25.3260 C   0  0  0  0  0  0  0  0  0  0  0  0
   15.5646   11.3380   26.6859 C   0  0  0  0  0  0  0  0  0  0  0  0
   14.5675   12.1828   27.1600 C   0  0  0  0  0  0  0  0  0  0  0  0
   13.8589   12.9889   26.2752 C   0  0  0  0  0  0  0  0  0  0  0  0
  1  2  2  0
  2  3  1  0
  3  4  1  0
  4  5  1  0
  5  6  2  0
  5  7  1  0
  7  8  1  0
  8  9  2  0
  9 10  1  0
 10 11  2  0
 11 12  1  0
 12 13  1  0
 12 14  2  0
 11 15  1  0
 15 16  2  0
 16 17  1  0
  7 18  1  0
 18 19  2  0
 18 20  1  0
 20 21  1  1
 21 22  1  0
 22 23  2  0
 23 24  1  0
 24 25  2  0
 25 26  1  0
 26 27  2  0
 20  4  1  0
 27 22  1  0
 16  8  1  0
M  END
>  <ref_pdb>  (68) 
x0554_0A

>  <ref_mols>  (68) 
x0310_0A,x0556_0A

>  <original SMILES>  (68) 
C=CCN1C(=O)N(c2ccc(C(N)=O)nc2C)C(=O)[C@@H]1Cc1ccccc1

>  <IC50 (nM)>  (68) 
1511.8893228340053

>  <CNNaffinity>  (68) 
5.82048

>  <rationale>  (68) 
-1

$$$$
PV_002600303511
     RDKit          3D

 24 26  0  0  0  0  0  0  0  0999 V2000
    9.6498    9.0669   23.2095 C   0  0  0  0  0  0  0  0  0  0  0  0
    8.9291   10.2608   23.7793 C   0  0  0  0  0  0  0  0  0  0  0  0
    7.8216   10.0347   24.4759 N   0  0  0  0  0  0  0  0  0  0  0  0
    7.1497   11.0659   25.0016 C   0  0  0  0  0  0  0  0  0  0  0  0
    5.9087   10.7929   25.8177 C   0  0  0  0  0  0  0  0  0  0  0  0
    5.6539    9.4849   26.0587 N   0  0  0  0  0  0  0  0  0  0  0  0
    5.2240   11.7037   26.2560 O   0  0  0  0  0  0  0  0  0  0  0  0
    7.5599   12.3801   24.8509 C   0  0  0  0  0  0  0  0  0  0  0  0
    8.7299   12.6325   24.1574 C   0  0  0  0  0  0  0  0  0  0  0  0
    9.4322   11.5647   23.6135 C   0  0  0  0  0  0  0  0  0  0  0  0
   10.6303   11.7803   22.8920 N   0  0  0  0  0  0  0  0  0  0  0  0
   11.5526   12.7214   23.2829 C   0  0  0  0  0  0  0  0  0  0  0  0
   11.5541   13.2033   24.4002 O   0  0  0  0  0  0  0  0  0  0  0  0
   12.5620   13.1653   22.2253 C   0  0  0  0  0  0  0  0  0  0  0  0
   11.9733   14.0951   21.1961 C   0  0  0  0  0  0  0  0  0  0  0  0
   11.8137   13.8611   19.8510 C   0  0  0  0  0  0  0  0  0  0  0  0
   11.2140   14.9833   19.3378 N   0  0  0  0  0  0  0  0  0  0  0  0
   10.7875   15.2604   18.0601 C   0  0  0  0  0  0  0  0  0  0  0  0
   10.1595   16.4426   17.8497 C   0  0  0  0  0  0  0  0  0  0  0  0
    9.6694   16.7393   16.6324 F   0  0  0  0  0  0  0  0  0  0  0  0
    9.9812   17.3932   18.8908 C   0  0  0  0  0  0  0  0  0  0  0  0
   10.4194   17.1081   20.1503 C   0  0  0  0  0  0  0  0  0  0  0  0
   11.0507   15.8592   20.4055 C   0  0  0  0  0  0  0  0  0  0  0  0
   11.5104   15.3354   21.5338 N   0  0  0  0  0  0  0  0  0  0  0  0
  1  2  1  0
  2  3  2  0
  3  4  1  0
  4  5  1  0
  5  6  1  0
  5  7  2  0
  4  8  2  0
  8  9  1  0
  9 10  2  0
 10 11  1  0
 11 12  1  0
 12 13  2  0
 12 14  1  0
 14 15  1  0
 15 16  2  0
 16 17  1  0
 17 18  1  0
 18 19  2  0
 19 20  1  0
 19 21  1  0
 21 22  2  0
 22 23  1  0
 23 24  2  0
 10  2  1  0
 24 15  1  0
 23 17  1  0
M  END
>  <ref_pdb>  (69) 
x0554_0A

>  <ref_mols>  (69) 
x0310_0A,x0556_0A

>  <original SMILES>  (69) 
Cc1nc(C(N)=O)ccc1NC(=O)Cc1cn2cc(F)ccc2n1

>  <IC50 (nM)>  (69) 
1512.516078396318

>  <CNNaffinity>  (69) 
5.8203

>  <rationale>  (69) 
-1

$$$$
PV_002359752511
     RDKit          3D

 28 30  0  0  0  0  0  0  0  0999 V2000
    9.7130    9.0330   23.1667 C   0  0  0  0  0  0  0  0  0  0  0  0
    8.9685   10.2052   23.7642 C   0  0  0  0  0  0  0  0  0  0  0  0
    7.8649    9.9544   24.4649 N   0  0  0  0  0  0  0  0  0  0  0  0
    7.1766   10.9809   24.9837 C   0  0  0  0  0  0  0  0  0  0  0  0
    5.9329   10.7303   25.8065 C   0  0  0  0  0  0  0  0  0  0  0  0
    5.6398    9.4345   26.0539 N   0  0  0  0  0  0  0  0  0  0  0  0
    5.2713   11.6578   26.2459 O   0  0  0  0  0  0  0  0  0  0  0  0
    7.5585   12.3055   24.8363 C   0  0  0  0  0  0  0  0  0  0  0  0
    8.7289   12.5838   24.1636 C   0  0  0  0  0  0  0  0  0  0  0  0
    9.4418   11.5249   23.6157 C   0  0  0  0  0  0  0  0  0  0  0  0
   10.6360   11.7843   22.9109 N   0  0  0  0  0  0  0  0  0  0  0  0
   11.5066   12.7730   23.3009 C   0  0  0  0  0  0  0  0  0  0  0  0
   11.3820   13.3732   24.3533 O   0  0  0  0  0  0  0  0  0  0  0  0
   12.5906   13.1469   22.3187 C   0  0  0  0  0  0  0  0  0  0  0  0
   12.2001   14.4467   21.5983 C   0  0  0  0  0  0  0  0  0  0  0  0
   11.0249   14.2949   20.6312 C   0  0  0  0  0  0  0  0  0  0  0  0
   10.6980   15.5504   19.9310 N   0  0  0  0  0  0  0  0  0  0  0  0
   11.2207   15.8584   18.6798 C   0  0  0  0  0  0  0  0  0  0  0  0
   12.1511   14.8563   18.0566 C   0  0  0  0  0  0  0  0  0  0  0  0
   10.9298   16.9127   18.0021 N   0  0  0  0  0  0  0  0  0  0  0  0
   10.0817   17.8371   18.5866 C   0  0  0  0  0  0  0  0  0  0  0  0
    9.7426   18.9916   17.8579 C   0  0  0  0  0  0  0  0  0  0  0  0
    8.9824   19.9670   18.4544 C   0  0  0  0  0  0  0  0  0  0  0  0
    8.5258   19.8327   19.7721 C   0  0  0  0  0  0  0  0  0  0  0  0
    8.7835   18.6727   20.4702 C   0  0  0  0  0  0  0  0  0  0  0  0
    9.5657   17.6731   19.8767 C   0  0  0  0  0  0  0  0  0  0  0  0
    9.8491   16.4370   20.6003 C   0  0  0  0  0  0  0  0  0  0  0  0
    9.4008   16.1731   21.7044 O   0  0  0  0  0  0  0  0  0  0  0  0
  1  2  1  0
  2  3  2  0
  3  4  1  0
  4  5  1  0
  5  6  1  0
  5  7  2  0
  4  8  2  0
  8  9  1  0
  9 10  2  0
 10 11  1  0
 11 12  1  0
 12 13  2  0
 12 14  1  0
 14 15  1  0
 15 16  1  0
 16 17  1  0
 17 18  1  0
 18 19  1  0
 18 20  2  0
 20 21  1  0
 21 22  2  0
 22 23  1  0
 23 24  2  0
 24 25  1  0
 25 26  2  0
 26 27  1  0
 27 28  2  0
 10  2  1  0
 27 17  1  0
 26 21  1  0
M  END
>  <ref_pdb>  (70) 
x0554_0A

>  <ref_mols>  (70) 
x0310_0A,x0556_0A

>  <original SMILES>  (70) 
Cc1nc(C(N)=O)ccc1NC(=O)CCCn1c(C)nc2ccccc2c1=O

>  <IC50 (nM)>  (70) 
1515.9678812013467

>  <CNNaffinity>  (70) 
5.81931

>  <rationale>  (70) 
-1

$$$$
PV_002591519504
     RDKit          3D

 24 26  0  0  0  0  0  0  0  0999 V2000
    9.6882    8.9998   23.0633 C   0  0  0  0  0  0  0  0  0  0  0  0
    8.9559   10.1568   23.6843 C   0  0  0  0  0  0  0  0  0  0  0  0
    7.8368    9.8770   24.3940 N   0  0  0  0  0  0  0  0  0  0  0  0
    7.1228   10.8699   24.9996 C   0  0  0  0  0  0  0  0  0  0  0  0
    5.8604   10.6096   25.8046 C   0  0  0  0  0  0  0  0  0  0  0  0
    5.2546    9.3938   26.0382 N   0  0  0  0  0  0  0  0  0  0  0  0
    5.2369   11.5031   26.3667 O   0  0  0  0  0  0  0  0  0  0  0  0
    7.5817   12.1989   24.8861 C   0  0  0  0  0  0  0  0  0  0  0  0
    8.7345   12.5042   24.1657 C   0  0  0  0  0  0  0  0  0  0  0  0
    9.4530   11.4833   23.5402 C   0  0  0  0  0  0  0  0  0  0  0  0
   10.6136   11.8401   22.8010 N   0  0  0  0  0  0  0  0  0  0  0  0
   11.3039   13.0322   22.9582 C   0  0  0  0  0  0  0  0  0  0  0  0
   11.0442   13.7899   23.8800 O   0  0  0  0  0  0  0  0  0  0  0  0
   12.3718   13.4456   21.9783 C   0  0  0  0  0  0  0  0  0  0  0  0
   11.9121   14.7373   21.4052 C   0  0  0  0  0  0  0  0  0  0  0  0
   12.0920   15.8599   22.0489 N   0  0  0  0  0  0  0  0  0  0  0  0
   11.5555   16.9027   21.2371 O   0  0  0  0  0  0  0  0  0  0  0  0
   11.0572   16.3321   20.0999 C   0  0  0  0  0  0  0  0  0  0  0  0
   10.4468   16.9431   18.9980 C   0  0  0  0  0  0  0  0  0  0  0  0
    9.9193   16.1443   17.9714 C   0  0  0  0  0  0  0  0  0  0  0  0
   10.0184   14.7451   18.0512 C   0  0  0  0  0  0  0  0  0  0  0  0
    9.2109   13.6275   16.7222 Br  0  0  0  0  0  0  0  0  0  0  0  0
   10.6792   14.1547   19.1397 C   0  0  0  0  0  0  0  0  0  0  0  0
   11.2062   14.9606   20.1620 C   0  0  0  0  0  0  0  0  0  0  0  0
  1  2  1  0
  2  3  2  0
  3  4  1  0
  4  5  1  0
  5  6  1  0
  5  7  2  0
  4  8  2  0
  8  9  1  0
  9 10  2  0
 10 11  1  0
 11 12  1  0
 12 13  2  0
 12 14  1  0
 14 15  1  0
 15 16  2  0
 16 17  1  0
 17 18  1  0
 18 19  2  0
 19 20  1  0
 20 21  2  0
 21 22  1  0
 21 23  1  0
 23 24  2  0
 10  2  1  0
 24 15  1  0
 24 18  1  0
M  END
>  <ref_pdb>  (71) 
x0554_0A

>  <ref_mols>  (71) 
x0310_0A,x0556_0A

>  <original SMILES>  (71) 
Cc1nc(C(N)=O)ccc1NC(=O)Cc1noc2ccc(Br)cc12

>  <IC50 (nM)>  (71) 
1520.0574421190101

>  <CNNaffinity>  (71) 
5.81814

>  <rationale>  (71) 
-1

$$$$
PV_004333970718
     RDKit          3D

 27 29  0  0  0  0  0  0  0  0999 V2000
    9.3848    9.4327   23.5948 C   0  0  0  0  0  0  0  0  0  0  0  0
    8.5719   10.4898   24.2979 C   0  0  0  0  0  0  0  0  0  0  0  0
    7.4727   10.0970   24.9319 N   0  0  0  0  0  0  0  0  0  0  0  0
    6.6826   11.0124   25.5056 C   0  0  0  0  0  0  0  0  0  0  0  0
    5.4485   10.5378   26.2314 C   0  0  0  0  0  0  0  0  0  0  0  0
    5.1858    9.2156   26.1084 N   0  0  0  0  0  0  0  0  0  0  0  0
    4.7549   11.3113   26.8739 O   0  0  0  0  0  0  0  0  0  0  0  0
    6.9536   12.3727   25.4813 C   0  0  0  0  0  0  0  0  0  0  0  0
    8.1034   12.7988   24.8365 C   0  0  0  0  0  0  0  0  0  0  0  0
    8.9308   11.8493   24.2510 C   0  0  0  0  0  0  0  0  0  0  0  0
   10.1109   12.2419   23.5750 N   0  0  0  0  0  0  0  0  0  0  0  0
   10.1346   13.2539   22.6746 C   0  0  0  0  0  0  0  0  0  0  0  0
    9.1571   13.9053   22.3404 O   0  0  0  0  0  0  0  0  0  0  0  0
   11.5678   13.4859   22.1317 C   0  0  0  0  0  0  0  0  0  0  0  0
   12.5046   12.9351   22.6988 O   0  0  0  0  0  0  0  0  0  0  0  0
   11.6941   14.3262   21.0814 N   0  0  0  0  0  0  0  0  0  0  0  0
   12.9699   14.9791   20.8133 C   0  0  0  0  0  0  0  0  0  0  0  0
   13.3649   14.7041   19.3691 C   0  0  0  0  0  0  0  0  0  0  0  0
   12.2831   15.1344   18.4587 C   0  0  0  0  0  0  0  0  0  0  0  0
   11.0150   14.9955   18.8405 C   0  0  0  0  0  0  0  0  0  0  0  0
    9.9845   15.0394   17.7966 C   0  0  0  0  0  0  0  0  0  0  0  0
    9.6484   16.2523   17.2103 C   0  0  0  0  0  0  0  0  0  0  0  0
    8.8083   16.2285   16.1150 C   0  0  0  0  0  0  0  0  0  0  0  0
    8.3292   15.1009   15.5940 N   0  0  0  0  0  0  0  0  0  0  0  0
    8.6415   13.9437   16.1701 C   0  0  0  0  0  0  0  0  0  0  0  0
    9.4729   13.8577   17.2700 C   0  0  0  0  0  0  0  0  0  0  0  0
   10.5784   14.7410   20.2481 C   0  0  0  0  0  0  0  0  0  0  0  0
  1  2  1  0
  2  3  2  0
  3  4  1  0
  4  5  1  0
  5  6  1  0
  5  7  2  0
  4  8  2  0
  8  9  1  0
  9 10  2  0
 10 11  1  0
 11 12  1  0
 12 13  2  0
 12 14  1  0
 14 15  2  0
 14 16  1  0
 16 17  1  0
 17 18  1  0
 18 19  1  0
 19 20  2  0
 20 21  1  0
 21 22  2  0
 22 23  1  0
 23 24  2  0
 24 25  1  0
 25 26  2  0
 20 27  1  0
 10  2  1  0
 27 16  1  0
 26 21  1  0
M  END
>  <ref_pdb>  (72) 
x0554_0A

>  <ref_mols>  (72) 
x0310_0A,x0556_0A

>  <original SMILES>  (72) 
Cc1nc(C(N)=O)ccc1NC(=O)C(=O)N1CCC=C(c2ccncc2)C1

>  <IC50 (nM)>  (72) 
1530.3825321774377

>  <CNNaffinity>  (72) 
5.8152

>  <rationale>  (72) 
-1

$$$$
PV_002380914315
     RDKit          3D

 26 28  0  0  0  0  0  0  0  0999 V2000
    8.9339   14.6349   21.3255 C   0  0  0  0  0  0  0  0  0  0  0  0
    9.9341   15.7791   21.3917 C   0  0  0  0  0  0  0  0  0  0  0  0
   11.0288   15.5947   20.4572 N   0  0  0  0  0  0  0  0  0  0  0  0
   12.3673   15.4061   20.7325 C   0  0  0  0  0  0  0  0  0  0  0  0
   12.9904   15.0321   22.3299 S   0  0  0  0  0  0  0  0  0  0  0  0
   12.6437   13.2527   22.3317 C   0  0  0  0  0  0  0  0  0  0  0  0
   11.4846   12.9469   23.2568 C   0  0  0  0  0  0  0  0  0  0  0  0
   11.3251   13.5708   24.2885 O   0  0  0  0  0  0  0  0  0  0  0  0
   10.6496   11.9351   22.8527 N   0  0  0  0  0  0  0  0  0  0  0  0
    9.4579   11.6348   23.5374 C   0  0  0  0  0  0  0  0  0  0  0  0
    8.7162   12.6487   24.1319 C   0  0  0  0  0  0  0  0  0  0  0  0
    7.5784   12.3184   24.8416 C   0  0  0  0  0  0  0  0  0  0  0  0
    7.2270   10.9780   24.9419 C   0  0  0  0  0  0  0  0  0  0  0  0
    6.0626   10.5319   25.7825 C   0  0  0  0  0  0  0  0  0  0  0  0
    5.0379   11.4485   25.8221 N   0  0  0  0  0  0  0  0  0  0  0  0
    6.0547    9.4904   26.4004 O   0  0  0  0  0  0  0  0  0  0  0  0
    7.9299   10.0060   24.3579 N   0  0  0  0  0  0  0  0  0  0  0  0
    9.0075   10.3054   23.6533 C   0  0  0  0  0  0  0  0  0  0  0  0
    9.7454    9.1492   23.0249 C   0  0  0  0  0  0  0  0  0  0  0  0
   13.1367   15.4951   19.6875 N   0  0  0  0  0  0  0  0  0  0  0  0
   12.2807   15.7489   18.6363 C   0  0  0  0  0  0  0  0  0  0  0  0
   12.5663   15.9898   17.2942 C   0  0  0  0  0  0  0  0  0  0  0  0
   11.5085   16.1202   16.4106 C   0  0  0  0  0  0  0  0  0  0  0  0
   10.1787   16.0760   16.8607 C   0  0  0  0  0  0  0  0  0  0  0  0
    9.8877   15.9123   18.2054 C   0  0  0  0  0  0  0  0  0  0  0  0
   10.9557   15.7623   19.0854 C   0  0  0  0  0  0  0  0  0  0  0  0
  1  2  1  0
  2  3  1  0
  3  4  1  0
  4  5  1  0
  5  6  1  0
  6  7  1  0
  7  8  2  0
  7  9  1  0
  9 10  1  0
 10 11  2  0
 11 12  1  0
 12 13  2  0
 13 14  1  0
 14 15  1  0
 14 16  2  0
 13 17  1  0
 17 18  2  0
 18 19  1  0
  4 20  2  0
 20 21  1  0
 21 22  2  0
 22 23  1  0
 23 24  2  0
 24 25  1  0
 25 26  2  0
 26  3  1  0
 18 10  1  0
 26 21  1  0
M  END
>  <ref_pdb>  (73) 
x0554_0A

>  <ref_mols>  (73) 
x0310_0A,x0556_0A

>  <original SMILES>  (73) 
CCn1c(SCC(=O)Nc2ccc(C(N)=O)nc2C)nc2ccccc21

>  <IC50 (nM)>  (73) 
1533.486651699623

>  <CNNaffinity>  (73) 
5.81432

>  <rationale>  (73) 
-1

$$$$
PV_005263276750
     RDKit          3D

 28 29  0  0  0  0  0  0  0  0999 V2000
    9.5263    8.9966   23.3513 C   0  0  0  0  0  0  0  0  0  0  0  0
    8.7625   10.1957   23.8503 C   0  0  0  0  0  0  0  0  0  0  0  0
    7.6472    9.9494   24.5144 N   0  0  0  0  0  0  0  0  0  0  0  0
    6.9139   10.9601   24.9832 C   0  0  0  0  0  0  0  0  0  0  0  0
    5.6809   10.5750   25.7572 C   0  0  0  0  0  0  0  0  0  0  0  0
    5.3781   11.4386   26.7821 N   0  0  0  0  0  0  0  0  0  0  0  0
    4.9972    9.6069   25.4974 O   0  0  0  0  0  0  0  0  0  0  0  0
    7.2534   12.2917   24.7710 C   0  0  0  0  0  0  0  0  0  0  0  0
    8.4325   12.5685   24.1074 C   0  0  0  0  0  0  0  0  0  0  0  0
    9.2146   11.5151   23.6540 C   0  0  0  0  0  0  0  0  0  0  0  0
   10.4397   11.7632   23.0009 N   0  0  0  0  0  0  0  0  0  0  0  0
   11.2420   12.8237   23.3389 C   0  0  0  0  0  0  0  0  0  0  0  0
   11.1011   13.4713   24.3547 O   0  0  0  0  0  0  0  0  0  0  0  0
   12.2684   13.1906   22.2715 C   0  0  2  0  0  0  0  0  0  0  0  0
   13.2393   13.9588   22.8762 F   0  0  0  0  0  0  0  0  0  0  0  0
   11.5914   14.0217   21.1684 C   0  0  0  0  0  0  0  0  0  0  0  0
   10.9500   15.2970   21.7626 C   0  0  0  0  0  0  0  0  0  0  0  0
   11.3702   16.5516   21.0103 C   0  0  0  0  0  0  0  0  0  0  0  0
   11.2213   16.3547   19.5776 N   0  0  0  0  0  0  0  0  0  0  0  0
   10.3964   17.0851   18.7708 C   0  0  0  0  0  0  0  0  0  0  0  0
   10.1966   16.7993   17.6032 O   0  0  0  0  0  0  0  0  0  0  0  0
    9.8722   18.1557   19.4069 O   0  0  0  0  0  0  0  0  0  0  0  0
    9.2485   19.2210   18.6243 C   0  0  0  0  0  0  0  0  0  0  0  0
    7.9669   18.7714   17.9845 C   0  0  0  0  0  0  0  0  0  0  0  0
   10.1248   19.6473   17.4588 C   0  0  0  0  0  0  0  0  0  0  0  0
    8.8610   20.3091   19.6287 C   0  0  0  0  0  0  0  0  0  0  0  0
   11.8943   15.2100   18.9724 C   0  0  0  0  0  0  0  0  0  0  0  0
   12.5693   14.3570   20.0389 C   0  0  0  0  0  0  0  0  0  0  0  0
  1  2  1  0
  2  3  2  0
  3  4  1  0
  4  5  1  0
  5  6  1  0
  5  7  2  0
  4  8  2  0
  8  9  1  0
  9 10  2  0
 10 11  1  0
 11 12  1  0
 12 13  2  0
 12 14  1  0
 14 15  1  1
 14 16  1  0
 16 17  1  0
 17 18  1  0
 18 19  1  0
 19 20  1  0
 20 21  2  0
 20 22  1  0
 22 23  1  0
 23 24  1  0
 23 25  1  0
 23 26  1  0
 19 27  1  0
 27 28  1  0
 10  2  1  0
 28 16  1  0
M  END
>  <ref_pdb>  (74) 
x0554_0A

>  <ref_mols>  (74) 
x0310_0A,x0556_0A

>  <original SMILES>  (74) 
Cc1nc(C(N)=O)ccc1NC(=O)[C@H](F)C1CCN(C(=O)OC(C)(C)C)CC1

>  <IC50 (nM)>  (74) 
1534.2989929924438

>  <CNNaffinity>  (74) 
5.81409

>  <rationale>  (74) 
-1

$$$$
PV_002248520470
     RDKit          3D

 26 28  0  0  0  0  0  0  0  0999 V2000
    9.6515    9.2061   23.1395 C   0  0  0  0  0  0  0  0  0  0  0  0
    8.9307   10.3928   23.7202 C   0  0  0  0  0  0  0  0  0  0  0  0
    7.8363   10.1578   24.4345 N   0  0  0  0  0  0  0  0  0  0  0  0
    7.1574   11.1845   24.9601 C   0  0  0  0  0  0  0  0  0  0  0  0
    5.9512   10.8851   25.8202 C   0  0  0  0  0  0  0  0  0  0  0  0
    5.6861    9.5715   26.0076 N   0  0  0  0  0  0  0  0  0  0  0  0
    5.2957   11.7821   26.3284 O   0  0  0  0  0  0  0  0  0  0  0  0
    7.5330   12.5059   24.7730 C   0  0  0  0  0  0  0  0  0  0  0  0
    8.6963   12.7643   24.0680 C   0  0  0  0  0  0  0  0  0  0  0  0
    9.4178   11.7001   23.5439 C   0  0  0  0  0  0  0  0  0  0  0  0
   10.6229   11.9199   22.8325 N   0  0  0  0  0  0  0  0  0  0  0  0
   11.5629   12.8293   23.2593 C   0  0  0  0  0  0  0  0  0  0  0  0
   11.5181   13.3418   24.3622 O   0  0  0  0  0  0  0  0  0  0  0  0
   12.6136   13.2456   22.2428 C   0  0  0  0  0  0  0  0  0  0  0  0
   12.0528   14.3746   21.4001 C   0  0  0  0  0  0  0  0  0  0  0  0
   11.7830   15.5894   22.0301 C   0  0  0  0  0  0  0  0  0  0  0  0
   11.3184   16.6594   21.2818 C   0  0  0  0  0  0  0  0  0  0  0  0
   11.0043   16.4997   19.9418 C   0  0  0  0  0  0  0  0  0  0  0  0
   11.1730   15.2556   19.3331 C   0  0  0  0  0  0  0  0  0  0  0  0
   10.7460   15.0683   18.0017 N   0  0  0  0  0  0  0  0  0  0  0  0
   10.4086   16.2058   17.1458 C   0  0  0  0  0  0  0  0  0  0  0  0
    9.9129   15.5346   15.8676 C   0  0  0  0  0  0  0  0  0  0  0  0
    9.2469   14.2678   16.3943 C   0  0  0  0  0  0  0  0  0  0  0  0
   10.1088   13.9059   17.5872 C   0  0  0  0  0  0  0  0  0  0  0  0
   10.1773   12.8256   18.1296 O   0  0  0  0  0  0  0  0  0  0  0  0
   11.7468   14.2067   20.0550 C   0  0  0  0  0  0  0  0  0  0  0  0
  1  2  1  0
  2  3  2  0
  3  4  1  0
  4  5  1  0
  5  6  1  0
  5  7  2  0
  4  8  2  0
  8  9  1  0
  9 10  2  0
 10 11  1  0
 11 12  1  0
 12 13  2  0
 12 14  1  0
 14 15  1  0
 15 16  2  0
 16 17  1  0
 17 18  2  0
 18 19  1  0
 19 20  1  0
 20 21  1  0
 21 22  1  0
 22 23  1  0
 23 24  1  0
 24 25  2  0
 19 26  2  0
 10  2  1  0
 26 15  1  0
 24 20  1  0
M  END
>  <ref_pdb>  (75) 
x0554_0A

>  <ref_mols>  (75) 
x0310_0A,x0556_0A

>  <original SMILES>  (75) 
Cc1nc(C(N)=O)ccc1NC(=O)Cc1cccc(N2CCCC2=O)c1

>  <IC50 (nM)>  (75) 
1542.1975185700815

>  <CNNaffinity>  (75) 
5.81186

>  <rationale>  (75) 
-1

$$$$
PV_004207030207
     RDKit          3D

 26 28  0  0  0  0  0  0  0  0999 V2000
    9.5352    9.2411   23.3983 C   0  0  0  0  0  0  0  0  0  0  0  0
    8.7851   10.3870   24.0308 C   0  0  0  0  0  0  0  0  0  0  0  0
    7.6898   10.0806   24.7207 N   0  0  0  0  0  0  0  0  0  0  0  0
    6.9813   11.0554   25.3004 C   0  0  0  0  0  0  0  0  0  0  0  0
    5.7254   10.6880   26.0485 C   0  0  0  0  0  0  0  0  0  0  0  0
    5.4806    9.3617   26.1301 N   0  0  0  0  0  0  0  0  0  0  0  0
    5.0109   11.5442   26.5435 O   0  0  0  0  0  0  0  0  0  0  0  0
    7.3517   12.3899   25.2598 C   0  0  0  0  0  0  0  0  0  0  0  0
    8.4704   12.7309   24.5239 C   0  0  0  0  0  0  0  0  0  0  0  0
    9.1897   11.7282   23.8850 C   0  0  0  0  0  0  0  0  0  0  0  0
   10.3074   12.0836   23.0949 N   0  0  0  0  0  0  0  0  0  0  0  0
   10.3038   13.1731   22.2842 C   0  0  0  0  0  0  0  0  0  0  0  0
    9.3293   13.8699   22.0541 O   0  0  0  0  0  0  0  0  0  0  0  0
   11.6793   13.4325   21.6214 C   0  0  0  0  0  0  0  0  0  0  0  0
   12.6169   12.6782   21.8118 O   0  0  0  0  0  0  0  0  0  0  0  0
   11.6797   14.5276   20.8004 N   0  0  0  0  0  0  0  0  0  0  0  0
   11.2605   15.8314   21.3043 C   0  0  0  0  0  0  0  0  0  0  0  0
   10.6455   16.6011   20.1584 C   0  0  0  0  0  0  0  0  0  0  0  0
   11.5672   16.7240   19.0922 O   0  0  0  0  0  0  0  0  0  0  0  0
   11.9629   15.4704   18.5596 C   0  0  2  0  0  0  0  0  0  0  0  0
   10.8081   14.8718   17.7852 C   0  0  0  0  0  0  0  0  0  0  0  0
   10.2532   13.6363   17.9134 C   0  0  0  0  0  0  0  0  0  0  0  0
    8.9878   13.3726   16.7791 S   0  0  0  0  0  0  0  0  0  0  0  0
    9.1598   14.9585   16.1420 C   0  0  0  0  0  0  0  0  0  0  0  0
   10.1514   15.6453   16.7685 C   0  0  0  0  0  0  0  0  0  0  0  0
   12.5748   14.5900   19.6560 C   0  0  0  0  0  0  0  0  0  0  0  0
  1  2  1  0
  2  3  2  0
  3  4  1  0
  4  5  1  0
  5  6  1  0
  5  7  2  0
  4  8  2  0
  8  9  1  0
  9 10  2  0
 10 11  1  0
 11 12  1  0
 12 13  2  0
 12 14  1  0
 14 15  2  0
 14 16  1  0
 16 17  1  0
 17 18  1  0
 18 19  1  0
 19 20  1  0
 20 21  1  1
 21 22  2  0
 22 23  1  0
 23 24  1  0
 24 25  2  0
 20 26  1  0
 10  2  1  0
 26 16  1  0
 25 21  1  0
M  END
>  <ref_pdb>  (76) 
x0554_0A

>  <ref_mols>  (76) 
x0310_0A,x0556_0A

>  <original SMILES>  (76) 
Cc1nc(C(N)=O)ccc1NC(=O)C(=O)N1CCO[C@H](c2ccsc2)C1

>  <IC50 (nM)>  (76) 
1569.6759347372665

>  <CNNaffinity>  (76) 
5.80419

>  <rationale>  (76) 
-1

$$$$
PV_002549282523
     RDKit          3D

 26 28  0  0  0  0  0  0  0  0999 V2000
    9.7214    9.0836   23.1661 C   0  0  0  0  0  0  0  0  0  0  0  0
    8.9828   10.2696   23.7307 C   0  0  0  0  0  0  0  0  0  0  0  0
    7.8860   10.0159   24.4445 N   0  0  0  0  0  0  0  0  0  0  0  0
    7.1944   11.0326   24.9733 C   0  0  0  0  0  0  0  0  0  0  0  0
    5.9574   10.7496   25.7995 C   0  0  0  0  0  0  0  0  0  0  0  0
    5.6782    9.4481   26.0534 N   0  0  0  0  0  0  0  0  0  0  0  0
    5.2784   11.6633   26.2409 O   0  0  0  0  0  0  0  0  0  0  0  0
    7.5788   12.3577   24.8217 C   0  0  0  0  0  0  0  0  0  0  0  0
    8.7381   12.6324   24.1199 C   0  0  0  0  0  0  0  0  0  0  0  0
    9.4579   11.5880   23.5506 C   0  0  0  0  0  0  0  0  0  0  0  0
   10.6568   11.8651   22.8319 N   0  0  0  0  0  0  0  0  0  0  0  0
   11.5445   12.8344   23.2406 C   0  0  0  0  0  0  0  0  0  0  0  0
   11.4506   13.4141   24.3044 O   0  0  0  0  0  0  0  0  0  0  0  0
   12.6726   13.1921   22.2639 C   0  0  0  0  0  0  0  0  0  0  0  0
   12.2271   14.0796   21.2020 N   0  0  0  0  0  0  0  0  0  0  0  0
   11.8094   15.3627   21.3048 C   0  0  0  0  0  0  0  0  0  0  0  0
   11.2194   15.7003   20.0972 C   0  0  0  0  0  0  0  0  0  0  0  0
   10.5481   16.9244   19.6401 C   0  0  0  0  0  0  0  0  0  0  0  0
    9.7157   17.6348   20.5032 C   0  0  0  0  0  0  0  0  0  0  0  0
    8.9865   18.7220   20.0444 C   0  0  0  0  0  0  0  0  0  0  0  0
    9.0704   19.1205   18.7135 C   0  0  0  0  0  0  0  0  0  0  0  0
    9.9269   18.4435   17.8504 C   0  0  0  0  0  0  0  0  0  0  0  0
   10.6764   17.3713   18.3185 C   0  0  0  0  0  0  0  0  0  0  0  0
   11.2952   14.5058   19.3332 C   0  0  0  0  0  0  0  0  0  0  0  0
   10.6853   14.1812   18.0002 C   0  0  0  0  0  0  0  0  0  0  0  0
   11.9211   13.5603   20.0040 N   0  0  0  0  0  0  0  0  0  0  0  0
  1  2  1  0
  2  3  2  0
  3  4  1  0
  4  5  1  0
  5  6  1  0
  5  7  2  0
  4  8  2  0
  8  9  1  0
  9 10  2  0
 10 11  1  0
 11 12  1  0
 12 13  2  0
 12 14  1  0
 14 15  1  0
 15 16  1  0
 16 17  2  0
 17 18  1  0
 18 19  2  0
 19 20  1  0
 20 21  2  0
 21 22  1  0
 22 23  2  0
 17 24  1  0
 24 25  1  0
 24 26  2  0
 10  2  1  0
 26 15  1  0
 23 18  1  0
M  END
>  <ref_pdb>  (77) 
x0554_0A

>  <ref_mols>  (77) 
x0310_0A,x0556_0A

>  <original SMILES>  (77) 
Cc1nc(C(N)=O)ccc1NC(=O)Cn1cc(-c2ccccc2)c(C)n1

>  <IC50 (nM)>  (77) 
1573.0770678303732

>  <CNNaffinity>  (77) 
5.80325

>  <rationale>  (77) 
-1

$$$$
PV_002491157919
     RDKit          3D

 24 25  0  0  0  0  0  0  0  0999 V2000
    9.8327    9.0083   23.1802 C   0  0  0  0  0  0  0  0  0  0  0  0
    9.0844   10.1979   23.7108 C   0  0  0  0  0  0  0  0  0  0  0  0
    8.0007    9.9191   24.4657 N   0  0  0  0  0  0  0  0  0  0  0  0
    7.2125   10.9113   24.9541 C   0  0  0  0  0  0  0  0  0  0  0  0
    5.9534   10.6238   25.7459 C   0  0  0  0  0  0  0  0  0  0  0  0
    5.0415   11.5884   26.1285 N   0  0  0  0  0  0  0  0  0  0  0  0
    5.6099    9.5133   26.1370 O   0  0  0  0  0  0  0  0  0  0  0  0
    7.5696   12.2492   24.6925 C   0  0  0  0  0  0  0  0  0  0  0  0
    8.6832   12.5604   23.9186 C   0  0  0  0  0  0  0  0  0  0  0  0
    9.4687   11.5359   23.3989 C   0  0  0  0  0  0  0  0  0  0  0  0
   10.6064   11.9092   22.6409 N   0  0  0  0  0  0  0  0  0  0  0  0
   10.8009   13.1550   22.0431 C   0  0  0  0  0  0  0  0  0  0  0  0
    9.8741   13.9558   21.9528 O   0  0  0  0  0  0  0  0  0  0  0  0
   12.2079   13.5594   21.5604 C   0  0  1  0  0  0  0  0  0  0  0  0
   12.2066   14.1544   20.1376 C   0  0  0  0  0  0  0  0  0  0  0  0
   12.8175   14.5970   22.5135 C   0  0  0  0  0  0  0  0  0  0  0  0
   12.8289   14.0796   23.9272 C   0  0  0  0  0  0  0  0  0  0  0  0
   11.8390   14.5030   24.8177 C   0  0  0  0  0  0  0  0  0  0  0  0
   11.8672   14.0919   26.1540 C   0  0  0  0  0  0  0  0  0  0  0  0
   12.8797   13.2409   26.6094 C   0  0  0  0  0  0  0  0  0  0  0  0
   12.9220   12.8817   27.9132 F   0  0  0  0  0  0  0  0  0  0  0  0
   13.8509   12.7743   25.7126 C   0  0  0  0  0  0  0  0  0  0  0  0
   15.2314   11.5819   26.3022 Br  0  0  0  0  0  0  0  0  0  0  0  0
   13.8189   13.1936   24.3773 C   0  0  0  0  0  0  0  0  0  0  0  0
  1  2  1  0
  2  3  2  0
  3  4  1  0
  4  5  1  0
  5  6  1  0
  5  7  2  0
  4  8  2  0
  8  9  1  0
  9 10  2  0
 10 11  1  0
 11 12  1  0
 12 13  2  0
 12 14  1  0
 14 15  1  6
 14 16  1  0
 16 17  1  0
 17 18  2  0
 18 19  1  0
 19 20  2  0
 20 21  1  0
 20 22  1  0
 22 23  1  0
 22 24  2  0
 10  2  1  0
 24 17  1  0
M  END
>  <ref_pdb>  (78) 
x0554_0A

>  <ref_mols>  (78) 
x0310_0A,x0556_0A

>  <original SMILES>  (78) 
Cc1nc(C(N)=O)ccc1NC(=O)[C@@H](C)Cc1ccc(F)c(Br)c1

>  <IC50 (nM)>  (78) 
1578.1562514377654

>  <CNNaffinity>  (78) 
5.80185

>  <rationale>  (78) 
-1

$$$$
Z2963613067
     RDKit          3D

 25 26  0  0  0  0  0  0  0  0999 V2000
    9.6756    9.4417   23.1082 C   0  0  0  0  0  0  0  0  0  0  0  0
    8.8000   10.5378   23.6527 C   0  0  0  0  0  0  0  0  0  0  0  0
    7.7785   10.1736   24.4078 N   0  0  0  0  0  0  0  0  0  0  0  0
    6.9735   11.1073   24.9201 C   0  0  0  0  0  0  0  0  0  0  0  0
    5.8419   10.6174   25.7881 C   0  0  0  0  0  0  0  0  0  0  0  0
    5.5687   11.4356   26.8512 N   0  0  0  0  0  0  0  0  0  0  0  0
    5.1994    9.6117   25.5665 O   0  0  0  0  0  0  0  0  0  0  0  0
    7.1360   12.4659   24.6653 C   0  0  0  0  0  0  0  0  0  0  0  0
    8.1830   12.8602   23.8543 C   0  0  0  0  0  0  0  0  0  0  0  0
    9.0482   11.8937   23.3623 C   0  0  0  0  0  0  0  0  0  0  0  0
   10.1872   12.2422   22.6114 N   0  0  0  0  0  0  0  0  0  0  0  0
   10.2465   13.3626   21.8083 C   0  0  0  0  0  0  0  0  0  0  0  0
    9.2636   13.8962   21.3322 O   0  0  0  0  0  0  0  0  0  0  0  0
   11.6688   13.9119   21.6213 C   0  0  0  0  0  0  0  0  0  0  0  0
   12.2754   14.0890   22.9791 C   0  0  0  0  0  0  0  0  0  0  0  0
   11.7774   14.8576   23.9864 C   0  0  0  0  0  0  0  0  0  0  0  0
   10.7917   15.9613   23.8045 C   0  0  0  0  0  0  0  0  0  0  0  0
   12.2194   14.5412   25.2513 N   0  0  0  0  0  0  0  0  0  0  0  0
   13.0538   13.5473   25.2123 C   0  0  0  0  0  0  0  0  0  0  0  0
   13.6083   12.9409   26.4627 C   0  0  0  0  0  0  0  0  0  0  0  0
   14.9773   12.2607   26.3814 C   0  0  0  0  0  0  0  0  0  0  0  0
   15.4836   12.2084   25.1433 F   0  0  0  0  0  0  0  0  0  0  0  0
   15.8757   12.8977   27.1522 F   0  0  0  0  0  0  0  0  0  0  0  0
   14.8823   10.9949   26.8250 F   0  0  0  0  0  0  0  0  0  0  0  0
   13.4522   13.0091   23.6111 S   0  0  0  0  0  0  0  0  0  0  0  0
  1  2  1  0
  2  3  2  0
  3  4  1  0
  4  5  1  0
  5  6  1  0
  5  7  2  0
  4  8  2  0
  8  9  1  0
  9 10  2  0
 10 11  1  0
 11 12  1  0
 12 13  2  0
 12 14  1  0
 14 15  1  0
 15 16  2  0
 16 17  1  0
 16 18  1  0
 18 19  2  0
 19 20  1  0
 20 21  1  0
 21 22  1  0
 21 23  1  0
 21 24  1  0
 19 25  1  0
 10  2  1  0
 25 15  1  0
M  END
>  <ref_pdb>  (79) 
x0554_0A

>  <ref_mols>  (79) 
x0310_0A,x0556_0A

>  <original SMILES>  (79) 
Cc1nc(C(N)=O)ccc1NC(=O)Cc1sc(CC(F)(F)F)nc1C

>  <IC50 (nM)>  (79) 
1578.337953850145

>  <CNNaffinity>  (79) 
5.8018

>  <rationale>  (79) 
-1

$$$$
PV_002089342102
     RDKit          3D

 25 26  0  0  0  0  0  0  0  0999 V2000
    9.7048    9.1501   23.1602 C   0  0  0  0  0  0  0  0  0  0  0  0
    8.9526   10.3308   23.7205 C   0  0  0  0  0  0  0  0  0  0  0  0
    7.8759   10.0777   24.4582 N   0  0  0  0  0  0  0  0  0  0  0  0
    7.1902   11.0985   24.9862 C   0  0  0  0  0  0  0  0  0  0  0  0
    5.9747   10.8106   25.8349 C   0  0  0  0  0  0  0  0  0  0  0  0
    5.7167    9.5005   26.0578 N   0  0  0  0  0  0  0  0  0  0  0  0
    5.3077   11.7173   26.3056 O   0  0  0  0  0  0  0  0  0  0  0  0
    7.5570   12.4238   24.8074 C   0  0  0  0  0  0  0  0  0  0  0  0
    8.6652   12.7052   24.0279 C   0  0  0  0  0  0  0  0  0  0  0  0
    9.3845   11.6528   23.4741 C   0  0  0  0  0  0  0  0  0  0  0  0
   10.5624   11.8959   22.7250 N   0  0  0  0  0  0  0  0  0  0  0  0
   10.7389   13.0068   21.9317 C   0  0  0  0  0  0  0  0  0  0  0  0
    9.7956   13.6763   21.5426 O   0  0  0  0  0  0  0  0  0  0  0  0
   12.1868   13.4188   21.6341 C   0  0  2  0  0  0  0  0  0  0  0  0
   12.5942   14.5485   22.5975 C   0  0  0  0  0  0  0  0  0  0  0  0
   11.7152   15.7636   22.3275 C   0  0  0  0  0  0  0  0  0  0  0  0
   11.9495   16.2341   20.9032 C   0  0  0  0  0  0  0  0  0  0  0  0
   11.8481   15.1559   19.9196 N   0  0  0  0  0  0  0  0  0  0  0  0
   11.7058   15.5416   18.5364 C   0  0  0  0  0  0  0  0  0  0  0  0
   10.2558   15.7205   18.1094 C   0  0  0  0  0  0  0  0  0  0  0  0
    9.6266   14.5489   17.9297 F   0  0  0  0  0  0  0  0  0  0  0  0
    9.5510   16.4344   19.0083 F   0  0  0  0  0  0  0  0  0  0  0  0
   10.2101   16.3861   16.9414 F   0  0  0  0  0  0  0  0  0  0  0  0
   12.2704   13.8694   20.1781 C   0  0  0  0  0  0  0  0  0  0  0  0
   12.6665   13.1254   19.2981 O   0  0  0  0  0  0  0  0  0  0  0  0
  1  2  1  0
  2  3  2  0
  3  4  1  0
  4  5  1  0
  5  6  1  0
  5  7  2  0
  4  8  2  0
  8  9  1  0
  9 10  2  0
 10 11  1  0
 11 12  1  0
 12 13  2  0
 14 12  1  1
 14 15  1  0
 15 16  1  0
 16 17  1  0
 17 18  1  0
 18 19  1  0
 19 20  1  0
 20 21  1  0
 20 22  1  0
 20 23  1  0
 18 24  1  0
 24 25  2  0
 10  2  1  0
 24 14  1  0
M  END
>  <ref_pdb>  (80) 
x0554_0A

>  <ref_mols>  (80) 
x0310_0A,x0556_0A

>  <original SMILES>  (80) 
Cc1nc(C(N)=O)ccc1NC(=O)[C@@H]1CCCN(CC(F)(F)F)C1=O

>  <IC50 (nM)>  (80) 
1612.9095003565492

>  <CNNaffinity>  (80) 
5.79239

>  <rationale>  (80) 
-1

$$$$
PV_002446269964
     RDKit          3D

 25 27  0  0  0  0  0  0  0  0999 V2000
    9.6606    9.1244   23.1983 C   0  0  0  0  0  0  0  0  0  0  0  0
    8.9400   10.3202   23.7634 C   0  0  0  0  0  0  0  0  0  0  0  0
    7.8318   10.0830   24.4575 N   0  0  0  0  0  0  0  0  0  0  0  0
    7.1559   11.1097   24.9856 C   0  0  0  0  0  0  0  0  0  0  0  0
    5.9230   10.8217   25.8089 C   0  0  0  0  0  0  0  0  0  0  0  0
    5.6694    9.5134   26.0427 N   0  0  0  0  0  0  0  0  0  0  0  0
    5.2354   11.7258   26.2559 O   0  0  0  0  0  0  0  0  0  0  0  0
    7.5464   12.4318   24.8318 C   0  0  0  0  0  0  0  0  0  0  0  0
    8.7107   12.6953   24.1310 C   0  0  0  0  0  0  0  0  0  0  0  0
    9.4320   11.6306   23.6027 C   0  0  0  0  0  0  0  0  0  0  0  0
   10.6442   11.8600   22.9090 N   0  0  0  0  0  0  0  0  0  0  0  0
   11.5802   12.7623   23.3543 C   0  0  0  0  0  0  0  0  0  0  0  0
   11.4824   13.3253   24.4284 O   0  0  0  0  0  0  0  0  0  0  0  0
   12.7075   13.1128   22.3888 C   0  0  0  0  0  0  0  0  0  0  0  0
   12.2408   14.1912   21.4441 C   0  0  0  0  0  0  0  0  0  0  0  0
   11.8732   14.0048   20.1438 C   0  0  0  0  0  0  0  0  0  0  0  0
   11.2838   15.1480   19.7010 N   0  0  0  0  0  0  0  0  0  0  0  0
   10.4994   15.2621   18.5268 C   0  0  0  0  0  0  0  0  0  0  0  0
   10.0357   16.5048   18.0978 C   0  0  0  0  0  0  0  0  0  0  0  0
    9.2460   16.5629   16.9552 C   0  0  0  0  0  0  0  0  0  0  0  0
    8.8922   15.3978   16.2790 C   0  0  0  0  0  0  0  0  0  0  0  0
    9.3476   14.1659   16.7198 C   0  0  0  0  0  0  0  0  0  0  0  0
   10.1595   14.0962   17.8392 C   0  0  0  0  0  0  0  0  0  0  0  0
   11.3117   16.1140   20.6452 N   0  0  0  0  0  0  0  0  0  0  0  0
   11.8971   15.5451   21.6881 C   0  0  0  0  0  0  0  0  0  0  0  0
  1  2  1  0
  2  3  2  0
  3  4  1  0
  4  5  1  0
  5  6  1  0
  5  7  2  0
  4  8  2  0
  8  9  1  0
  9 10  2  0
 10 11  1  0
 11 12  1  0
 12 13  2  0
 12 14  1  0
 14 15  1  0
 15 16  2  0
 16 17  1  0
 17 18  1  0
 18 19  2  0
 19 20  1  0
 20 21  2  0
 21 22  1  0
 22 23  2  0
 17 24  1  0
 24 25  2  0
 10  2  1  0
 25 15  1  0
 23 18  1  0
M  END
>  <ref_pdb>  (81) 
x0554_0A

>  <ref_mols>  (81) 
x0310_0A,x0556_0A

>  <original SMILES>  (81) 
Cc1nc(C(N)=O)ccc1NC(=O)Cc1cnn(-c2ccccc2)c1

>  <IC50 (nM)>  (81) 
1627.833568215352

>  <CNNaffinity>  (81) 
5.78839

>  <rationale>  (81) 
-1

$$$$
PV_002434345361
     RDKit          3D

 24 26  0  0  0  0  0  0  0  0999 V2000
    9.7122    9.0292   23.1786 C   0  0  0  0  0  0  0  0  0  0  0  0
    8.9762   10.2067   23.7724 C   0  0  0  0  0  0  0  0  0  0  0  0
    7.8689    9.9576   24.4679 N   0  0  0  0  0  0  0  0  0  0  0  0
    7.1772   10.9835   24.9821 C   0  0  0  0  0  0  0  0  0  0  0  0
    5.9342   10.7361   25.8072 C   0  0  0  0  0  0  0  0  0  0  0  0
    5.6436    9.4402   26.0544 N   0  0  0  0  0  0  0  0  0  0  0  0
    5.2731   11.6625   26.2483 O   0  0  0  0  0  0  0  0  0  0  0  0
    7.5546   12.3082   24.8273 C   0  0  0  0  0  0  0  0  0  0  0  0
    8.7294   12.5840   24.1602 C   0  0  0  0  0  0  0  0  0  0  0  0
    9.4534   11.5257   23.6249 C   0  0  0  0  0  0  0  0  0  0  0  0
   10.6568   11.7847   22.9313 N   0  0  0  0  0  0  0  0  0  0  0  0
   11.5396   12.7588   23.3343 C   0  0  0  0  0  0  0  0  0  0  0  0
   11.4520   13.3313   24.4012 O   0  0  0  0  0  0  0  0  0  0  0  0
   12.6295   13.1164   22.3225 C   0  0  0  0  0  0  0  0  0  0  0  0
   12.1438   14.1320   21.3276 C   0  0  0  0  0  0  0  0  0  0  0  0
   12.0903   15.4863   21.3625 C   0  0  0  0  0  0  0  0  0  0  0  0
   11.4835   15.9292   20.2180 O   0  0  0  0  0  0  0  0  0  0  0  0
   11.1842   14.7931   19.5420 C   0  0  0  0  0  0  0  0  0  0  0  0
   10.5193   14.8418   18.2650 C   0  0  0  0  0  0  0  0  0  0  0  0
   10.0847   13.7505   17.5597 C   0  0  0  0  0  0  0  0  0  0  0  0
    9.5147   14.1040   16.3070 C   0  0  0  0  0  0  0  0  0  0  0  0
    9.5415   15.4557   16.1013 C   0  0  0  0  0  0  0  0  0  0  0  0
   10.2171   16.3178   17.4227 S   0  0  0  0  0  0  0  0  0  0  0  0
   11.5512   13.7140   20.1541 N   0  0  0  0  0  0  0  0  0  0  0  0
  1  2  1  0
  2  3  2  0
  3  4  1  0
  4  5  1  0
  5  6  1  0
  5  7  2  0
  4  8  2  0
  8  9  1  0
  9 10  2  0
 10 11  1  0
 11 12  1  0
 12 13  2  0
 12 14  1  0
 14 15  1  0
 15 16  2  0
 16 17  1  0
 17 18  1  0
 18 19  1  0
 19 20  2  0
 20 21  1  0
 21 22  2  0
 22 23  1  0
 18 24  2  0
 10  2  1  0
 24 15  1  0
 23 19  1  0
M  END
>  <ref_pdb>  (82) 
x0554_0A

>  <ref_mols>  (82) 
x0310_0A,x0556_0A

>  <original SMILES>  (82) 
Cc1nc(C(N)=O)ccc1NC(=O)Cc1coc(-c2cccs2)n1

>  <IC50 (nM)>  (82) 
1628.4333947499836

>  <CNNaffinity>  (82) 
5.78823

>  <rationale>  (82) 
-1

$$$$
PV_002226515233
     RDKit          3D

 24 26  0  0  0  0  0  0  0  0999 V2000
    9.6483    9.0858   23.2239 C   0  0  0  0  0  0  0  0  0  0  0  0
    8.9274   10.2835   23.7879 C   0  0  0  0  0  0  0  0  0  0  0  0
    7.8169   10.0579   24.4816 N   0  0  0  0  0  0  0  0  0  0  0  0
    7.1433   11.0926   24.9987 C   0  0  0  0  0  0  0  0  0  0  0  0
    5.9033   10.8239   25.8142 C   0  0  0  0  0  0  0  0  0  0  0  0
    5.6410    9.5172   26.0364 N   0  0  0  0  0  0  0  0  0  0  0  0
    5.2270   11.7381   26.2582 O   0  0  0  0  0  0  0  0  0  0  0  0
    7.5483   12.4086   24.8534 C   0  0  0  0  0  0  0  0  0  0  0  0
    8.7210   12.6590   24.1662 C   0  0  0  0  0  0  0  0  0  0  0  0
    9.4220   11.5906   23.6185 C   0  0  0  0  0  0  0  0  0  0  0  0
   10.6169   11.8100   22.8922 N   0  0  0  0  0  0  0  0  0  0  0  0
   11.5353   12.7627   23.2659 C   0  0  0  0  0  0  0  0  0  0  0  0
   11.5576   13.2497   24.3786 O   0  0  0  0  0  0  0  0  0  0  0  0
   12.5043   13.2020   22.1678 C   0  0  0  0  0  0  0  0  0  0  0  0
   11.8673   14.1782   21.2189 C   0  0  0  0  0  0  0  0  0  0  0  0
   11.6233   15.5160   21.4125 C   0  0  0  0  0  0  0  0  0  0  0  0
   10.9765   15.9383   20.2775 N   0  0  0  0  0  0  0  0  0  0  0  0
   10.5859   17.2239   19.8867 C   0  0  0  0  0  0  0  0  0  0  0  0
   10.1156   17.4432   18.6628 C   0  0  0  0  0  0  0  0  0  0  0  0
    9.9010   16.3682   17.6281 C   0  0  0  0  0  0  0  0  0  0  0  0
   10.1929   14.9690   18.1550 C   0  0  0  0  0  0  0  0  0  0  0  0
    9.8903   13.8623   17.4753 C   0  0  0  0  0  0  0  0  0  0  0  0
   10.8576   14.8454   19.4501 C   0  0  0  0  0  0  0  0  0  0  0  0
   11.3848   13.7753   20.0067 N   0  0  0  0  0  0  0  0  0  0  0  0
  1  2  1  0
  2  3  2  0
  3  4  1  0
  4  5  1  0
  5  6  1  0
  5  7  2  0
  4  8  2  0
  8  9  1  0
  9 10  2  0
 10 11  1  0
 11 12  1  0
 12 13  2  0
 12 14  1  0
 14 15  1  0
 15 16  2  0
 16 17  1  0
 17 18  1  0
 18 19  2  0
 19 20  1  0
 20 21  2  0
 21 22  1  0
 21 23  1  0
 23 24  2  0
 10  2  1  0
 24 15  1  0
 23 17  1  0
M  END
>  <ref_pdb>  (83) 
x0554_0A

>  <ref_mols>  (83) 
x0310_0A,x0556_0A

>  <original SMILES>  (83) 
Cc1nc(C(N)=O)ccc1NC(=O)Cc1cn2cccc(C)c2n1

>  <IC50 (nM)>  (83) 
1635.0460922116872

>  <CNNaffinity>  (83) 
5.78647

>  <rationale>  (83) 
-1

$$$$
PV_006826181464
     RDKit          3D

 28 30  0  0  0  0  0  0  0  0999 V2000
    8.4179   13.1487   16.4213 C   0  0  0  0  0  0  0  0  0  0  0  0
    9.4809   14.1749   16.6060 C   0  0  0  0  0  0  0  0  0  0  0  0
    9.3650   15.3557   15.8933 C   0  0  0  0  0  0  0  0  0  0  0  0
   10.3075   16.3595   16.0328 C   0  0  0  0  0  0  0  0  0  0  0  0
   11.3399   16.2035   16.9471 C   0  0  0  0  0  0  0  0  0  0  0  0
   11.4020   15.0596   17.7589 C   0  0  0  0  0  0  0  0  0  0  0  0
   12.3884   15.1019   18.9171 C   0  0  2  0  0  0  0  0  0  0  0  0
   12.3426   14.0208   19.9859 C   0  0  0  0  0  0  0  0  0  0  0  0
   11.1838   14.1404   20.8718 N   0  0  0  0  0  0  0  0  0  0  0  0
   11.1669   13.1958   21.8773 C   0  0  0  0  0  0  0  0  0  0  0  0
   12.1166   12.5015   22.1931 O   0  0  0  0  0  0  0  0  0  0  0  0
    9.8301   13.0431   22.6296 C   0  0  0  0  0  0  0  0  0  0  0  0
    8.8463   13.7149   22.3812 O   0  0  0  0  0  0  0  0  0  0  0  0
    9.9057   12.0491   23.5541 N   0  0  0  0  0  0  0  0  0  0  0  0
    8.8031   11.6017   24.3094 C   0  0  0  0  0  0  0  0  0  0  0  0
    7.9007   12.5125   24.8373 C   0  0  0  0  0  0  0  0  0  0  0  0
    6.8257   12.0343   25.5633 C   0  0  0  0  0  0  0  0  0  0  0  0
    6.6803   10.6607   25.7097 C   0  0  0  0  0  0  0  0  0  0  0  0
    5.4797   10.0751   26.4068 C   0  0  0  0  0  0  0  0  0  0  0  0
    5.1264   10.7479   27.5465 N   0  0  0  0  0  0  0  0  0  0  0  0
    4.8574    9.1213   25.9884 O   0  0  0  0  0  0  0  0  0  0  0  0
    7.5544    9.7847   25.2102 N   0  0  0  0  0  0  0  0  0  0  0  0
    8.5944   10.2242   24.5190 C   0  0  0  0  0  0  0  0  0  0  0  0
    9.5155    9.1830   23.9334 C   0  0  0  0  0  0  0  0  0  0  0  0
   10.8953   15.5044   21.3407 C   0  0  0  0  0  0  0  0  0  0  0  0
   10.9941   16.4771   20.1936 C   0  0  0  0  0  0  0  0  0  0  0  0
   12.2583   16.3511   19.5712 O   0  0  0  0  0  0  0  0  0  0  0  0
   10.4836   14.0401   17.5610 C   0  0  0  0  0  0  0  0  0  0  0  0
  1  2  1  0
  2  3  2  0
  3  4  1  0
  4  5  2  0
  5  6  1  0
  7  6  1  6
  7  8  1  0
  8  9  1  0
  9 10  1  0
 10 11  2  0
 10 12  1  0
 12 13  2  0
 12 14  1  0
 14 15  1  0
 15 16  2  0
 16 17  1  0
 17 18  2  0
 18 19  1  0
 19 20  1  0
 19 21  2  0
 18 22  1  0
 22 23  2  0
 23 24  1  0
  9 25  1  0
 25 26  1  0
 26 27  1  0
  6 28  2  0
 28  2  1  0
 27  7  1  0
 23 15  1  0
M  END
>  <ref_pdb>  (84) 
x0554_0A

>  <ref_mols>  (84) 
x0310_0A,x0556_0A

>  <original SMILES>  (84) 
Cc1cccc([C@@H]2CN(C(=O)C(=O)Nc3ccc(C(N)=O)nc3C)CCO2)c1

>  <IC50 (nM)>  (84) 
1635.497934564134

>  <CNNaffinity>  (84) 
5.78635

>  <rationale>  (84) 
-1

$$$$
PV_002401577978
     RDKit          3D

 26 28  0  0  0  0  0  0  0  0999 V2000
    9.7434    9.2776   23.2396 C   0  0  0  0  0  0  0  0  0  0  0  0
    8.9236   10.4262   23.7619 C   0  0  0  0  0  0  0  0  0  0  0  0
    7.8454   10.1277   24.4663 N   0  0  0  0  0  0  0  0  0  0  0  0
    7.0762   11.1149   24.9319 C   0  0  0  0  0  0  0  0  0  0  0  0
    5.8669   10.7053   25.7290 C   0  0  0  0  0  0  0  0  0  0  0  0
    5.5902   11.5588   26.7665 N   0  0  0  0  0  0  0  0  0  0  0  0
    5.1724    9.7450   25.4721 O   0  0  0  0  0  0  0  0  0  0  0  0
    7.3378   12.4582   24.6828 C   0  0  0  0  0  0  0  0  0  0  0  0
    8.4495   12.7852   23.9323 C   0  0  0  0  0  0  0  0  0  0  0  0
    9.2722   11.7618   23.4796 C   0  0  0  0  0  0  0  0  0  0  0  0
   10.4526   12.0464   22.7620 N   0  0  0  0  0  0  0  0  0  0  0  0
   10.5426   13.1236   21.9104 C   0  0  0  0  0  0  0  0  0  0  0  0
    9.5477   13.6746   21.4722 O   0  0  0  0  0  0  0  0  0  0  0  0
   11.9495   13.6403   21.6391 C   0  0  2  0  0  0  0  0  0  0  0  0
   12.2994   14.6157   22.7782 C   0  0  0  0  0  0  0  0  0  0  0  0
   11.4022   15.8509   22.6754 C   0  0  0  0  0  0  0  0  0  0  0  0
   11.6337   16.5237   21.3287 C   0  0  0  0  0  0  0  0  0  0  0  0
   11.3675   15.6180   20.2216 N   0  0  0  0  0  0  0  0  0  0  0  0
   10.2782   15.8904   19.4210 C   0  0  0  0  0  0  0  0  0  0  0  0
    9.4030   16.6781   19.7555 O   0  0  0  0  0  0  0  0  0  0  0  0
   10.2505   15.2550   18.1862 N   0  0  0  0  0  0  0  0  0  0  0  0
    9.0981   15.5681   17.3377 C   0  0  0  0  0  0  0  0  0  0  0  0
    9.5142   15.1477   15.9287 C   0  0  0  0  0  0  0  0  0  0  0  0
   11.0451   15.2172   15.9262 C   0  0  0  0  0  0  0  0  0  0  0  0
   11.4781   15.0840   17.3937 C   0  0  0  0  0  0  0  0  0  0  0  0
   12.0288   14.3132   20.2592 C   0  0  0  0  0  0  0  0  0  0  0  0
  1  2  1  0
  2  3  2  0
  3  4  1  0
  4  5  1  0
  5  6  1  0
  5  7  2  0
  4  8  2  0
  8  9  1  0
  9 10  2  0
 10 11  1  0
 11 12  1  0
 12 13  2  0
 14 12  1  1
 14 15  1  0
 15 16  1  0
 16 17  1  0
 17 18  1  0
 18 19  1  0
 19 20  2  0
 19 21  1  0
 21 22  1  0
 22 23  1  0
 23 24  1  0
 24 25  1  0
 18 26  1  0
 10  2  1  0
 26 14  1  0
 25 21  1  0
M  END
>  <ref_pdb>  (85) 
x0554_0A

>  <ref_mols>  (85) 
x0310_0A,x0556_0A

>  <original SMILES>  (85) 
Cc1nc(C(N)=O)ccc1NC(=O)[C@@H]1CCCN(C(=O)N2CCCC2)C1

>  <IC50 (nM)>  (85) 
1644.409586709021

>  <CNNaffinity>  (85) 
5.78399

>  <rationale>  (85) 
-1

$$$$
PV_007154186718
     RDKit          3D

 25 26  0  0  0  0  0  0  0  0999 V2000
    9.8179    9.2970   22.8648 C   0  0  0  0  0  0  0  0  0  0  0  0
    9.0062   10.3942   23.5006 C   0  0  0  0  0  0  0  0  0  0  0  0
    7.9891   10.0192   24.2579 N   0  0  0  0  0  0  0  0  0  0  0  0
    7.2349   10.9458   24.8547 C   0  0  0  0  0  0  0  0  0  0  0  0
    6.1308   10.4210   25.7365 C   0  0  0  0  0  0  0  0  0  0  0  0
    5.0150   11.2216   25.7554 N   0  0  0  0  0  0  0  0  0  0  0  0
    6.2406    9.4152   26.4055 O   0  0  0  0  0  0  0  0  0  0  0  0
    7.4767   12.3089   24.7313 C   0  0  0  0  0  0  0  0  0  0  0  0
    8.5588   12.7190   23.9713 C   0  0  0  0  0  0  0  0  0  0  0  0
    9.3333   11.7540   23.3416 C   0  0  0  0  0  0  0  0  0  0  0  0
   10.4560   12.1384   22.5819 N   0  0  0  0  0  0  0  0  0  0  0  0
   11.4011   12.9819   23.1062 C   0  0  0  0  0  0  0  0  0  0  0  0
   11.4088   13.2826   24.2828 O   0  0  0  0  0  0  0  0  0  0  0  0
   12.4475   13.5099   22.1168 C   0  0  2  0  0  0  0  0  0  0  0  0
   13.1858   14.6941   22.7372 C   0  0  0  0  0  0  0  0  0  0  0  0
   11.8647   13.8912   20.7861 C   0  0  0  0  0  0  0  0  0  0  0  0
   10.8046   14.7409   20.5375 C   0  0  0  0  0  0  0  0  0  0  0  0
    9.7327   15.2627   21.4468 C   0  0  0  0  0  0  0  0  0  0  0  0
   10.1382   15.2576   22.7338 F   0  0  0  0  0  0  0  0  0  0  0  0
    8.6217   14.5075   21.3920 F   0  0  0  0  0  0  0  0  0  0  0  0
    9.3760   16.5298   21.1621 F   0  0  0  0  0  0  0  0  0  0  0  0
   10.7604   14.9503   19.1984 N   0  0  0  0  0  0  0  0  0  0  0  0
    9.8583   15.7994   18.4404 C   0  0  0  0  0  0  0  0  0  0  0  0
   11.7320   14.2938   18.5556 N   0  0  0  0  0  0  0  0  0  0  0  0
   12.3918   13.6457   19.5030 C   0  0  0  0  0  0  0  0  0  0  0  0
  1  2  1  0
  2  3  2  0
  3  4  1  0
  4  5  1  0
  5  6  1  0
  5  7  2  0
  4  8  2  0
  8  9  1  0
  9 10  2  0
 10 11  1  0
 11 12  1  0
 12 13  2  0
 12 14  1  0
 14 15  1  1
 14 16  1  0
 16 17  2  0
 17 18  1  0
 18 19  1  0
 18 20  1  0
 18 21  1  0
 17 22  1  0
 22 23  1  0
 22 24  1  0
 24 25  2  0
 10  2  1  0
 25 16  1  0
M  END
>  <ref_pdb>  (86) 
x0554_0A

>  <ref_mols>  (86) 
x0310_0A,x0556_0A

>  <original SMILES>  (86) 
Cc1nc(C(N)=O)ccc1NC(=O)[C@H](C)c1cnn(C)c1C(F)(F)F

>  <IC50 (nM)>  (86) 
1668.130411472026

>  <CNNaffinity>  (86) 
5.77777

>  <rationale>  (86) 
-1

$$$$
PV_004532831214
     RDKit          3D

 27 30  0  0  0  0  0  0  0  0999 V2000
    9.4669    9.3883   23.0899 C   0  0  0  0  0  0  0  0  0  0  0  0
    8.6653   10.5096   23.6980 C   0  0  0  0  0  0  0  0  0  0  0  0
    7.6011   10.1465   24.4144 N   0  0  0  0  0  0  0  0  0  0  0  0
    6.7860   11.0872   24.9457 C   0  0  0  0  0  0  0  0  0  0  0  0
    5.5986   10.6655   25.8587 C   0  0  0  0  0  0  0  0  0  0  0  0
    5.3579    9.3501   26.0980 N   0  0  0  0  0  0  0  0  0  0  0  0
    4.8739   11.4838   26.4037 O   0  0  0  0  0  0  0  0  0  0  0  0
    6.9857   12.4551   24.6926 C   0  0  0  0  0  0  0  0  0  0  0  0
    8.1113   12.8565   23.9743 C   0  0  0  0  0  0  0  0  0  0  0  0
    9.0071   11.8875   23.5284 C   0  0  0  0  0  0  0  0  0  0  0  0
   10.2904   12.3203   23.0274 N   0  0  0  0  0  0  0  0  0  0  0  0
   10.4645   13.3600   22.1034 C   0  0  0  0  0  0  0  0  0  0  0  0
    9.6362   13.8011   21.3455 O   0  0  0  0  0  0  0  0  0  0  0  0
   11.7540   13.7957   22.1958 N   0  0  0  0  0  0  0  0  0  0  0  0
   12.5689   12.9429   23.0456 C   0  0  1  0  0  0  0  0  0  0  0  0
   13.4154   13.7613   24.0389 C   0  0  0  0  0  0  0  0  0  0  0  0
   14.2505   12.9649   24.9937 C   0  0  0  0  0  0  0  0  0  0  0  0
   14.2626   12.9139   26.3467 C   0  0  0  0  0  0  0  0  0  0  0  0
   15.3266   12.0038   26.7187 C   0  0  0  0  0  0  0  0  0  0  0  0
   15.8756   11.5138   27.9215 C   0  0  0  0  0  0  0  0  0  0  0  0
   16.8988   10.5702   27.8499 C   0  0  0  0  0  0  0  0  0  0  0  0
   17.3820   10.1148   26.6020 C   0  0  0  0  0  0  0  0  0  0  0  0
   16.8569   10.5910   25.4022 C   0  0  0  0  0  0  0  0  0  0  0  0
   15.8495   11.5524   25.5003 C   0  0  0  0  0  0  0  0  0  0  0  0
   15.2153   12.1580   24.4540 O   0  0  0  0  0  0  0  0  0  0  0  0
   11.4751   12.1081   23.7335 C   0  0  0  0  0  0  0  0  0  0  0  0
   11.5775   11.4350   24.7277 O   0  0  0  0  0  0  0  0  0  0  0  0
  1  2  1  0
  2  3  2  0
  3  4  1  0
  4  5  1  0
  5  6  1  0
  5  7  2  0
  4  8  2  0
  8  9  1  0
  9 10  2  0
 10 11  1  0
 11 12  1  0
 12 13  2  0
 12 14  1  0
 14 15  1  0
 15 16  1  1
 16 17  1  0
 17 18  2  0
 18 19  1  0
 19 20  2  0
 20 21  1  0
 21 22  2  0
 22 23  1  0
 23 24  2  0
 24 25  1  0
 15 26  1  0
 26 27  2  0
 10  2  1  0
 26 11  1  0
 25 17  1  0
 24 19  1  0
M  END
>  <ref_pdb>  (87) 
x0554_0A

>  <ref_mols>  (87) 
x0310_0A,x0556_0A

>  <original SMILES>  (87) 
Cc1nc(C(N)=O)ccc1N1C(=O)N[C@@H](Cc2cc3ccccc3o2)C1=O

>  <IC50 (nM)>  (87) 
1668.1688220364304

>  <CNNaffinity>  (87) 
5.77776

>  <rationale>  (87) 
-1

$$$$
PV_002538578582
     RDKit          3D

 27 29  0  0  0  0  0  0  0  0999 V2000
    9.4868   17.5606   20.5981 C   0  0  0  0  0  0  0  0  0  0  0  0
   10.5567   17.1051   19.6157 C   0  0  0  0  0  0  0  0  0  0  0  0
   10.1450   15.8895   18.9249 N   0  0  0  0  0  0  0  0  0  0  0  0
    9.2227   16.0500   17.8053 C   0  0  0  0  0  0  0  0  0  0  0  0
   10.0276   15.9276   16.5047 C   0  0  0  0  0  0  0  0  0  0  0  0
   11.2999   15.1825   16.9351 C   0  0  0  0  0  0  0  0  0  0  0  0
   11.1659   14.9383   18.4616 C   0  0  1  0  0  0  0  0  0  0  0  0
   12.5739   14.9721   19.1022 C   0  0  0  0  0  0  0  0  0  0  0  0
   12.6953   14.6760   20.5204 N   0  0  0  0  0  0  0  0  0  0  0  0
   12.3011   13.3842   21.0192 C   0  0  0  0  0  0  0  0  0  0  0  0
   12.6667   13.3721   22.5155 C   0  0  2  0  0  0  0  0  0  0  0  0
   11.5588   12.8820   23.4765 C   0  0  0  0  0  0  0  0  0  0  0  0
   11.4512   13.3400   24.5969 O   0  0  0  0  0  0  0  0  0  0  0  0
   10.7196   11.8884   23.0077 N   0  0  0  0  0  0  0  0  0  0  0  0
    9.4670   11.5460   23.6165 C   0  0  0  0  0  0  0  0  0  0  0  0
    8.6813   12.5778   24.1419 C   0  0  0  0  0  0  0  0  0  0  0  0
    7.4956   12.2724   24.8013 C   0  0  0  0  0  0  0  0  0  0  0  0
    7.1158   10.9311   24.9529 C   0  0  0  0  0  0  0  0  0  0  0  0
    5.8347   10.6408   25.7839 C   0  0  0  0  0  0  0  0  0  0  0  0
    5.5036    9.3626   26.1269 N   0  0  0  0  0  0  0  0  0  0  0  0
    5.1227   11.5383   26.2047 O   0  0  0  0  0  0  0  0  0  0  0  0
    7.8499    9.9310   24.4054 N   0  0  0  0  0  0  0  0  0  0  0  0
    8.9777   10.2083   23.7400 C   0  0  0  0  0  0  0  0  0  0  0  0
    9.7052    9.0262   23.1470 C   0  0  0  0  0  0  0  0  0  0  0  0
   13.1446   14.8190   22.7837 C   0  0  0  0  0  0  0  0  0  0  0  0
   13.3285   15.4747   21.4259 C   0  0  0  0  0  0  0  0  0  0  0  0
   13.8820   16.5276   21.1702 O   0  0  0  0  0  0  0  0  0  0  0  0
  1  2  1  0
  2  3  1  0
  3  4  1  0
  4  5  1  0
  5  6  1  0
  6  7  1  0
  7  8  1  1
  8  9  1  0
  9 10  1  0
 10 11  1  0
 11 12  1  1
 12 13  2  0
 12 14  1  0
 14 15  1  0
 15 16  2  0
 16 17  1  0
 17 18  2  0
 18 19  1  0
 19 20  1  0
 19 21  2  0
 18 22  1  0
 22 23  2  0
 23 24  1  0
 11 25  1  0
 25 26  1  0
 26 27  2  0
  7  3  1  0
 26  9  1  0
 23 15  1  0
M  END
>  <ref_pdb>  (88) 
x0554_0A

>  <ref_mols>  (88) 
x0310_0A,x0556_0A

>  <original SMILES>  (88) 
CCN1CCC[C@H]1CN1C[C@H](C(=O)Nc2ccc(C(N)=O)nc2C)CC1=O

>  <IC50 (nM)>  (88) 
1685.621259223805

>  <CNNaffinity>  (88) 
5.77324

>  <rationale>  (88) 
-1

$$$$
PV_003754387956
     RDKit          3D

 24 26  0  0  0  0  0  0  0  0999 V2000
    9.7138    9.0415   23.1735 C   0  0  0  0  0  0  0  0  0  0  0  0
    8.9761   10.2150   23.7729 C   0  0  0  0  0  0  0  0  0  0  0  0
    7.8716    9.9630   24.4723 N   0  0  0  0  0  0  0  0  0  0  0  0
    7.1784   10.9854   24.9898 C   0  0  0  0  0  0  0  0  0  0  0  0
    5.9325   10.7280   25.8065 C   0  0  0  0  0  0  0  0  0  0  0  0
    5.6400    9.4305   26.0486 N   0  0  0  0  0  0  0  0  0  0  0  0
    5.2700   11.6538   26.2455 O   0  0  0  0  0  0  0  0  0  0  0  0
    7.5604   12.3090   24.8366 C   0  0  0  0  0  0  0  0  0  0  0  0
    8.7353   12.5849   24.1627 C   0  0  0  0  0  0  0  0  0  0  0  0
    9.4575   11.5303   23.6180 C   0  0  0  0  0  0  0  0  0  0  0  0
   10.6508   11.7760   22.9031 N   0  0  0  0  0  0  0  0  0  0  0  0
   11.5436   12.7490   23.2769 C   0  0  0  0  0  0  0  0  0  0  0  0
   11.5112   13.2777   24.3707 O   0  0  0  0  0  0  0  0  0  0  0  0
   12.5565   13.1603   22.2149 C   0  0  0  0  0  0  0  0  0  0  0  0
   11.9504   14.0756   21.1857 C   0  0  0  0  0  0  0  0  0  0  0  0
   11.6726   13.8354   19.8599 C   0  0  0  0  0  0  0  0  0  0  0  0
   11.0722   14.9796   19.3856 N   0  0  0  0  0  0  0  0  0  0  0  0
   10.4418   15.2936   18.1933 C   0  0  0  0  0  0  0  0  0  0  0  0
   10.2773   14.2042   17.1803 C   0  0  0  0  0  0  0  0  0  0  0  0
   10.0006   16.5805   18.0648 C   0  0  0  0  0  0  0  0  0  0  0  0
   10.0913   17.5352   19.0469 N   0  0  0  0  0  0  0  0  0  0  0  0
   10.5878   17.1786   20.1989 C   0  0  0  0  0  0  0  0  0  0  0  0
   11.0800   15.8703   20.4408 C   0  0  0  0  0  0  0  0  0  0  0  0
   11.5867   15.3383   21.5344 N   0  0  0  0  0  0  0  0  0  0  0  0
  1  2  1  0
  2  3  2  0
  3  4  1  0
  4  5  1  0
  5  6  1  0
  5  7  2  0
  4  8  2  0
  8  9  1  0
  9 10  2  0
 10 11  1  0
 11 12  1  0
 12 13  2  0
 12 14  1  0
 14 15  1  0
 15 16  2  0
 16 17  1  0
 17 18  1  0
 18 19  1  0
 18 20  2  0
 20 21  1  0
 21 22  2  0
 22 23  1  0
 23 24  2  0
 10  2  1  0
 24 15  1  0
 23 17  1  0
M  END
>  <ref_pdb>  (89) 
x0554_0A

>  <ref_mols>  (89) 
x0310_0A,x0556_0A

>  <original SMILES>  (89) 
Cc1nc(C(N)=O)ccc1NC(=O)Cc1cn2c(C)cncc2n1

>  <IC50 (nM)>  (89) 
1690.5577071991977

>  <CNNaffinity>  (89) 
5.77197

>  <rationale>  (89) 
-1

$$$$
PV_002326178849
     RDKit          3D

 26 28  0  0  0  0  0  0  0  0999 V2000
    9.7793    9.1389   23.0899 C   0  0  0  0  0  0  0  0  0  0  0  0
    9.0257   10.2983   23.6954 C   0  0  0  0  0  0  0  0  0  0  0  0
    7.9431   10.0100   24.3970 N   0  0  0  0  0  0  0  0  0  0  0  0
    7.2406   10.9932   24.9672 C   0  0  0  0  0  0  0  0  0  0  0  0
    6.0601   10.5613   25.7961 C   0  0  0  0  0  0  0  0  0  0  0  0
    5.0575   11.4986   25.8999 N   0  0  0  0  0  0  0  0  0  0  0  0
    6.0305    9.4949   26.3739 O   0  0  0  0  0  0  0  0  0  0  0  0
    7.6223   12.3255   24.8779 C   0  0  0  0  0  0  0  0  0  0  0  0
    8.7528   12.6502   24.1473 C   0  0  0  0  0  0  0  0  0  0  0  0
    9.4703   11.6283   23.5408 C   0  0  0  0  0  0  0  0  0  0  0  0
   10.6329   11.9029   22.7911 N   0  0  0  0  0  0  0  0  0  0  0  0
   11.5237   12.8826   23.1432 C   0  0  0  0  0  0  0  0  0  0  0  0
   11.4469   13.4933   24.1922 O   0  0  0  0  0  0  0  0  0  0  0  0
   12.6234   13.1494   22.1308 C   0  0  0  0  0  0  0  0  0  0  0  0
   12.1214   13.9263   20.9421 C   0  0  0  0  0  0  0  0  0  0  0  0
   12.3854   13.6845   19.6271 C   0  0  0  0  0  0  0  0  0  0  0  0
   11.5837   14.8411   18.6428 S   0  0  0  0  0  0  0  0  0  0  0  0
   10.9357   15.5820   20.0849 C   0  0  0  0  0  0  0  0  0  0  0  0
   10.0781   16.7851   20.0285 C   0  0  0  0  0  0  0  0  0  0  0  0
   10.0340   17.5521   18.8567 C   0  0  0  0  0  0  0  0  0  0  0  0
    9.3571   18.7610   18.8085 C   0  0  0  0  0  0  0  0  0  0  0  0
    8.7029   19.2247   19.9440 C   0  0  0  0  0  0  0  0  0  0  0  0
    8.6682   18.4537   21.0965 C   0  0  0  0  0  0  0  0  0  0  0  0
    9.3260   17.2284   21.1270 C   0  0  0  0  0  0  0  0  0  0  0  0
    9.1188   16.2969   22.5803 Cl  0  0  0  0  0  0  0  0  0  0  0  0
   11.3076   15.0016   21.1827 N   0  0  0  0  0  0  0  0  0  0  0  0
  1  2  1  0
  2  3  2  0
  3  4  1  0
  4  5  1  0
  5  6  1  0
  5  7  2  0
  4  8  2  0
  8  9  1  0
  9 10  2  0
 10 11  1  0
 11 12  1  0
 12 13  2  0
 12 14  1  0
 14 15  1  0
 15 16  2  0
 16 17  1  0
 17 18  1  0
 18 19  1  0
 19 20  2  0
 20 21  1  0
 21 22  2  0
 22 23  1  0
 23 24  2  0
 24 25  1  0
 18 26  2  0
 10  2  1  0
 26 15  1  0
 24 19  1  0
M  END
>  <ref_pdb>  (90) 
x0554_0A

>  <ref_mols>  (90) 
x0310_0A,x0556_0A

>  <original SMILES>  (90) 
Cc1nc(C(N)=O)ccc1NC(=O)Cc1csc(-c2ccccc2Cl)n1

>  <IC50 (nM)>  (90) 
1707.7724374801753

>  <CNNaffinity>  (90) 
5.76757

>  <rationale>  (90) 
-1

$$$$
PV_002427943512
     RDKit          3D

 28 30  0  0  0  0  0  0  0  0999 V2000
    9.3658    9.0477   23.3682 C   0  0  0  0  0  0  0  0  0  0  0  0
    8.7338   10.2533   24.0100 C   0  0  0  0  0  0  0  0  0  0  0  0
    7.5621   10.0940   24.6101 N   0  0  0  0  0  0  0  0  0  0  0  0
    6.9482   11.1512   25.1528 C   0  0  0  0  0  0  0  0  0  0  0  0
    5.6327   10.9152   25.8509 C   0  0  0  0  0  0  0  0  0  0  0  0
    5.1802    9.6423   25.7836 N   0  0  0  0  0  0  0  0  0  0  0  0
    5.0467   11.8166   26.4287 O   0  0  0  0  0  0  0  0  0  0  0  0
    7.4754   12.4321   25.1231 C   0  0  0  0  0  0  0  0  0  0  0  0
    8.7168   12.6091   24.5321 C   0  0  0  0  0  0  0  0  0  0  0  0
    9.3600   11.5105   23.9751 C   0  0  0  0  0  0  0  0  0  0  0  0
   10.6090   11.6336   23.3154 N   0  0  0  0  0  0  0  0  0  0  0  0
   11.5347   12.5583   23.7643 C   0  0  0  0  0  0  0  0  0  0  0  0
   11.6195   12.8934   24.9290 O   0  0  0  0  0  0  0  0  0  0  0  0
   12.4521   13.1396   22.6844 C   0  0  0  0  0  0  0  0  0  0  0  0
   11.9266   14.3947   22.1579 N   0  0  0  0  0  0  0  0  0  0  0  0
   10.7348   14.4233   21.5094 C   0  0  0  0  0  0  0  0  0  0  0  0
   10.0523   13.4187   21.3729 O   0  0  0  0  0  0  0  0  0  0  0  0
   10.2544   15.7360   20.9101 C   0  0  0  0  0  0  0  0  0  0  0  0
    9.8541   15.4826   19.4818 C   0  0  0  0  0  0  0  0  0  0  0  0
    8.6083   15.0073   19.1953 C   0  0  0  0  0  0  0  0  0  0  0  0
    8.1580   14.8304   17.8597 C   0  0  0  0  0  0  0  0  0  0  0  0
    8.9267   15.2847   16.8257 C   0  0  0  0  0  0  0  0  0  0  0  0
   10.2404   15.7480   17.0968 C   0  0  0  0  0  0  0  0  0  0  0  0
   11.0676   16.2659   16.0818 C   0  0  0  0  0  0  0  0  0  0  0  0
   12.3928   16.4726   16.3259 C   0  0  0  0  0  0  0  0  0  0  0  0
   12.9630   16.0763   17.5441 C   0  0  0  0  0  0  0  0  0  0  0  0
   12.1715   15.7062   18.5950 C   0  0  0  0  0  0  0  0  0  0  0  0
   10.7685   15.6522   18.4076 C   0  0  0  0  0  0  0  0  0  0  0  0
  1  2  1  0
  2  3  2  0
  3  4  1  0
  4  5  1  0
  5  6  1  0
  5  7  2  0
  4  8  2  0
  8  9  1  0
  9 10  2  0
 10 11  1  0
 11 12  1  0
 12 13  2  0
 12 14  1  0
 14 15  1  0
 15 16  1  0
 16 17  2  0
 16 18  1  0
 18 19  1  0
 19 20  2  0
 20 21  1  0
 21 22  2  0
 22 23  1  0
 23 24  2  0
 24 25  1  0
 25 26  2  0
 26 27  1  0
 27 28  2  0
 10  2  1  0
 28 19  1  0
 28 23  1  0
M  END
>  <ref_pdb>  (91) 
x0554_0A

>  <ref_mols>  (91) 
x0310_0A,x0556_0A

>  <original SMILES>  (91) 
Cc1nc(C(N)=O)ccc1NC(=O)CNC(=O)Cc1cccc2ccccc12

>  <IC50 (nM)>  (91) 
1725.2021869221114

>  <CNNaffinity>  (91) 
5.76316

>  <rationale>  (91) 
-1

$$$$
PV_006772858388
     RDKit          3D

 26 29  0  0  0  0  0  0  0  0999 V2000
    9.4311    9.1008   23.3941 C   0  0  0  0  0  0  0  0  0  0  0  0
    8.7918   10.3297   23.9860 C   0  0  0  0  0  0  0  0  0  0  0  0
    7.6035   10.1653   24.5499 N   0  0  0  0  0  0  0  0  0  0  0  0
    6.9401   11.2249   25.0259 C   0  0  0  0  0  0  0  0  0  0  0  0
    5.6223   10.9771   25.7202 C   0  0  0  0  0  0  0  0  0  0  0  0
    5.2183    9.6857   25.7198 N   0  0  0  0  0  0  0  0  0  0  0  0
    4.9900   11.8814   26.2408 O   0  0  0  0  0  0  0  0  0  0  0  0
    7.4305   12.5182   24.9275 C   0  0  0  0  0  0  0  0  0  0  0  0
    8.7002   12.7020   24.4061 C   0  0  0  0  0  0  0  0  0  0  0  0
    9.4123   11.5944   23.9609 C   0  0  0  0  0  0  0  0  0  0  0  0
   10.7311   11.7270   23.4675 N   0  0  0  0  0  0  0  0  0  0  0  0
   11.6270   12.6478   23.9686 C   0  0  0  0  0  0  0  0  0  0  0  0
   11.3704   13.3274   24.9457 O   0  0  0  0  0  0  0  0  0  0  0  0
   12.9303   12.8610   23.2202 C   0  0  0  0  0  0  0  0  0  0  0  0
   12.8285   14.2156   22.5063 C   0  0  0  0  0  0  0  0  0  0  0  0
   12.0578   13.9903   21.2061 C   0  0  0  0  0  0  0  0  0  0  0  0
   11.0883   15.0594   20.7130 C   0  0  2  0  0  0  0  0  0  0  0  0
    9.9757   14.3198   19.9533 C   0  0  0  0  0  0  0  0  0  0  0  0
    8.9255   15.2954   19.4277 C   0  0  1  0  0  0  0  0  0  0  0  0
    8.3199   16.0005   20.6525 C   0  0  0  0  0  0  0  0  0  0  0  0
    9.3993   16.8129   21.3636 C   0  0  2  0  0  0  0  0  0  0  0  0
   10.0535   17.8169   20.4054 C   0  0  0  0  0  0  0  0  0  0  0  0
   10.7129   17.0631   19.2410 C   0  0  2  0  0  0  0  0  0  0  0  0
    9.6095   16.3075   18.4926 C   0  0  0  0  0  0  0  0  0  0  0  0
   11.7475   16.0441   19.7468 C   0  0  0  0  0  0  0  0  0  0  0  0
   10.4724   15.8606   21.8736 C   0  0  0  0  0  0  0  0  0  0  0  0
  1  2  1  0
  2  3  2  0
  3  4  1  0
  4  5  1  0
  5  6  1  0
  5  7  2  0
  4  8  2  0
  8  9  1  0
  9 10  2  0
 10 11  1  0
 11 12  1  0
 12 13  2  0
 12 14  1  0
 14 15  1  0
 15 16  1  0
 17 16  1  1
 17 18  1  0
 19 18  1  1
 19 20  1  0
 21 20  1  6
 21 22  1  0
 23 22  1  1
 23 24  1  0
 23 25  1  0
 21 26  1  0
 10  2  1  0
 25 17  1  0
 26 17  1  0
 24 19  1  0
M  END
>  <ref_pdb>  (92) 
x0554_0A

>  <ref_mols>  (92) 
x0310_0A,x0556_0A

>  <original SMILES>  (92) 
Cc1nc(C(N)=O)ccc1NC(=O)CCC[C@]12C[C@H]3C[C@H](C[C@H](C3)C1)C2

>  <IC50 (nM)>  (92) 
1728.9801210438065

>  <CNNaffinity>  (92) 
5.76221

>  <rationale>  (92) 
-1

$$$$
PV_004520465846
     RDKit          3D

 26 28  0  0  0  0  0  0  0  0999 V2000
    9.6589    9.0774   23.2067 C   0  0  0  0  0  0  0  0  0  0  0  0
    8.9347   10.2729   23.7719 C   0  0  0  0  0  0  0  0  0  0  0  0
    7.8275   10.0401   24.4668 N   0  0  0  0  0  0  0  0  0  0  0  0
    7.1554   11.0694   24.9956 C   0  0  0  0  0  0  0  0  0  0  0  0
    5.9173   10.7908   25.8149 C   0  0  0  0  0  0  0  0  0  0  0  0
    5.6612    9.4835   26.0552 N   0  0  0  0  0  0  0  0  0  0  0  0
    5.2322   11.7012   26.2580 O   0  0  0  0  0  0  0  0  0  0  0  0
    7.5687   12.3842   24.8521 C   0  0  0  0  0  0  0  0  0  0  0  0
    8.7430   12.6448   24.1672 C   0  0  0  0  0  0  0  0  0  0  0  0
    9.4354   11.5800   23.6074 C   0  0  0  0  0  0  0  0  0  0  0  0
   10.6320   11.7872   22.8809 N   0  0  0  0  0  0  0  0  0  0  0  0
   11.5803   12.7106   23.2362 C   0  0  0  0  0  0  0  0  0  0  0  0
   11.5307   13.3418   24.2735 O   0  0  0  0  0  0  0  0  0  0  0  0
   12.6794   12.9609   22.2071 C   0  0  0  0  0  0  0  0  0  0  0  0
   12.1983   13.9005   21.1336 C   0  0  0  0  0  0  0  0  0  0  0  0
   12.4517   13.6956   19.8683 N   0  0  0  0  0  0  0  0  0  0  0  0
   11.8014   14.7109   19.1880 O   0  0  0  0  0  0  0  0  0  0  0  0
   11.1650   15.5123   20.0640 C   0  0  0  0  0  0  0  0  0  0  0  0
   10.3944   16.6342   19.5102 C   0  0  0  0  0  0  0  0  0  0  0  0
   10.5843   17.0271   18.1754 C   0  0  0  0  0  0  0  0  0  0  0  0
    9.9532   18.1493   17.6624 C   0  0  0  0  0  0  0  0  0  0  0  0
    9.1369   18.9270   18.4777 C   0  0  0  0  0  0  0  0  0  0  0  0
    8.8909   18.5261   19.7827 C   0  0  0  0  0  0  0  0  0  0  0  0
    9.4694   17.3621   20.2724 C   0  0  0  0  0  0  0  0  0  0  0  0
    8.9038   16.8271   21.8356 Cl  0  0  0  0  0  0  0  0  0  0  0  0
   11.4156   15.0659   21.3257 C   0  0  0  0  0  0  0  0  0  0  0  0
  1  2  1  0
  2  3  2  0
  3  4  1  0
  4  5  1  0
  5  6  1  0
  5  7  2  0
  4  8  2  0
  8  9  1  0
  9 10  2  0
 10 11  1  0
 11 12  1  0
 12 13  2  0
 12 14  1  0
 14 15  1  0
 15 16  2  0
 16 17  1  0
 17 18  1  0
 18 19  1  0
 19 20  2  0
 20 21  1  0
 21 22  2  0
 22 23  1  0
 23 24  2  0
 24 25  1  0
 18 26  2  0
 10  2  1  0
 26 15  1  0
 24 19  1  0
M  END
>  <ref_pdb>  (93) 
x0554_0A

>  <ref_mols>  (93) 
x0310_0A,x0556_0A

>  <original SMILES>  (93) 
Cc1nc(C(N)=O)ccc1NC(=O)Cc1cc(-c2ccccc2Cl)on1

>  <IC50 (nM)>  (93) 
1743.3315905904346

>  <CNNaffinity>  (93) 
5.75862

>  <rationale>  (93) 
-1

$$$$
PV_002101520765
     RDKit          3D

 26 28  0  0  0  0  0  0  0  0999 V2000
    9.7027    9.1439   23.2116 C   0  0  0  0  0  0  0  0  0  0  0  0
    8.9418   10.3348   23.7357 C   0  0  0  0  0  0  0  0  0  0  0  0
    7.8401   10.0861   24.4253 N   0  0  0  0  0  0  0  0  0  0  0  0
    7.1082   11.1073   24.8818 C   0  0  0  0  0  0  0  0  0  0  0  0
    5.8698   10.7465   25.6664 C   0  0  0  0  0  0  0  0  0  0  0  0
    5.5364   11.6616   26.6351 N   0  0  0  0  0  0  0  0  0  0  0  0
    5.1983    9.7601   25.4516 O   0  0  0  0  0  0  0  0  0  0  0  0
    7.4342   12.4358   24.6281 C   0  0  0  0  0  0  0  0  0  0  0  0
    8.6006   12.7173   23.9372 C   0  0  0  0  0  0  0  0  0  0  0  0
    9.3868   11.6546   23.5153 C   0  0  0  0  0  0  0  0  0  0  0  0
   10.6078   11.9199   22.8589 N   0  0  0  0  0  0  0  0  0  0  0  0
   11.4827   12.8584   23.3519 C   0  0  0  0  0  0  0  0  0  0  0  0
   11.3085   13.3794   24.4387 O   0  0  0  0  0  0  0  0  0  0  0  0
   12.6678   13.2454   22.4974 C   0  0  0  0  0  0  0  0  0  0  0  0
   12.4690   14.6417   21.8671 C   0  0  0  0  0  0  0  0  0  0  0  0
   11.4424   14.6614   20.7313 C   0  0  2  0  0  0  0  0  0  0  0  0
   11.8524   15.5217   19.5252 C   0  0  0  0  0  0  0  0  0  0  0  0
   10.9413   15.1180   18.4133 C   0  0  0  0  0  0  0  0  0  0  0  0
   11.3781   14.5932   17.2106 C   0  0  0  0  0  0  0  0  0  0  0  0
   10.4756   14.1385   16.2557 C   0  0  0  0  0  0  0  0  0  0  0  0
    9.1113   14.2350   16.5155 C   0  0  0  0  0  0  0  0  0  0  0  0
    8.6573   14.7272   17.7372 C   0  0  0  0  0  0  0  0  0  0  0  0
    9.5780   15.1059   18.7144 C   0  0  0  0  0  0  0  0  0  0  0  0
    9.2318   15.4023   20.0507 N   0  0  0  0  0  0  0  0  0  0  0  0
   10.0376   15.0996   21.1340 C   0  0  0  0  0  0  0  0  0  0  0  0
    9.6318   15.1861   22.2790 O   0  0  0  0  0  0  0  0  0  0  0  0
  1  2  1  0
  2  3  2  0
  3  4  1  0
  4  5  1  0
  5  6  1  0
  5  7  2  0
  4  8  2  0
  8  9  1  0
  9 10  2  0
 10 11  1  0
 11 12  1  0
 12 13  2  0
 12 14  1  0
 14 15  1  0
 16 15  1  1
 16 17  1  0
 17 18  1  0
 18 19  2  0
 19 20  1  0
 20 21  2  0
 21 22  1  0
 22 23  2  0
 23 24  1  0
 24 25  1  0
 25 26  2  0
 10  2  1  0
 25 16  1  0
 23 18  1  0
M  END
>  <ref_pdb>  (94) 
x0554_0A

>  <ref_mols>  (94) 
x0310_0A,x0556_0A

>  <original SMILES>  (94) 
Cc1nc(C(N)=O)ccc1NC(=O)CC[C@@H]1Cc2ccccc2NC1=O

>  <IC50 (nM)>  (94) 
1746.2643983721455

>  <CNNaffinity>  (94) 
5.75789

>  <rationale>  (94) 
-1

$$$$
PV_002547923276
     RDKit          3D

 25 27  0  0  0  0  0  0  0  0999 V2000
    9.5658    9.4324   23.1209 C   0  0  0  0  0  0  0  0  0  0  0  0
    8.8180   10.5988   23.7065 C   0  0  0  0  0  0  0  0  0  0  0  0
    7.7437   10.3329   24.4371 N   0  0  0  0  0  0  0  0  0  0  0  0
    7.0586   11.3386   24.9959 C   0  0  0  0  0  0  0  0  0  0  0  0
    5.8822   10.9821   25.8734 C   0  0  0  0  0  0  0  0  0  0  0  0
    5.6675    9.6540   26.0007 N   0  0  0  0  0  0  0  0  0  0  0  0
    5.2106   11.8388   26.4265 O   0  0  0  0  0  0  0  0  0  0  0  0
    7.4069   12.6692   24.8286 C   0  0  0  0  0  0  0  0  0  0  0  0
    8.5452   12.9612   24.0944 C   0  0  0  0  0  0  0  0  0  0  0  0
    9.2619   11.9203   23.5207 C   0  0  0  0  0  0  0  0  0  0  0  0
   10.4239   12.1667   22.7508 N   0  0  0  0  0  0  0  0  0  0  0  0
   11.3596   13.0928   23.1251 C   0  0  0  0  0  0  0  0  0  0  0  0
   11.3555   13.6493   24.2077 O   0  0  0  0  0  0  0  0  0  0  0  0
   12.4024   13.4244   22.0554 C   0  0  0  0  0  0  0  0  0  0  0  0
   11.8104   13.6620   20.7872 O   0  0  0  0  0  0  0  0  0  0  0  0
   11.0652   14.7858   20.5920 C   0  0  0  0  0  0  0  0  0  0  0  0
   10.8454   15.7767   21.5202 C   0  0  0  0  0  0  0  0  0  0  0  0
   10.0941   16.9191   21.1532 C   0  0  0  0  0  0  0  0  0  0  0  0
    9.5981   17.0801   19.8893 C   0  0  0  0  0  0  0  0  0  0  0  0
    9.7941   16.0662   18.9215 C   0  0  0  0  0  0  0  0  0  0  0  0
    9.3050   16.1618   17.5915 C   0  0  0  0  0  0  0  0  0  0  0  0
    9.4349   15.0880   16.7594 C   0  0  0  0  0  0  0  0  0  0  0  0
   10.0733   13.9241   17.2535 C   0  0  0  0  0  0  0  0  0  0  0  0
   10.5845   13.8156   18.4574 N   0  0  0  0  0  0  0  0  0  0  0  0
   10.4733   14.8797   19.2862 C   0  0  0  0  0  0  0  0  0  0  0  0
  1  2  1  0
  2  3  2  0
  3  4  1  0
  4  5  1  0
  5  6  1  0
  5  7  2  0
  4  8  2  0
  8  9  1  0
  9 10  2  0
 10 11  1  0
 11 12  1  0
 12 13  2  0
 12 14  1  0
 14 15  1  0
 15 16  1  0
 16 17  2  0
 17 18  1  0
 18 19  2  0
 19 20  1  0
 20 21  2  0
 21 22  1  0
 22 23  2  0
 23 24  1  0
 24 25  2  0
 10  2  1  0
 25 16  1  0
 25 20  1  0
M  END
>  <ref_pdb>  (95) 
x0554_0A

>  <ref_mols>  (95) 
x0310_0A,x0556_0A

>  <original SMILES>  (95) 
Cc1nc(C(N)=O)ccc1NC(=O)COc1cccc2cccnc12

>  <IC50 (nM)>  (95) 
1747.6320472605614

>  <CNNaffinity>  (95) 
5.75755

>  <rationale>  (95) 
-1

$$$$
PV_002320873923
     RDKit          3D

 27 29  0  0  0  0  0  0  0  0999 V2000
    9.6765    9.1204   23.1649 C   0  0  0  0  0  0  0  0  0  0  0  0
    8.9365   10.2913   23.7572 C   0  0  0  0  0  0  0  0  0  0  0  0
    7.8050   10.0228   24.4160 N   0  0  0  0  0  0  0  0  0  0  0  0
    7.0943   11.0274   24.9847 C   0  0  0  0  0  0  0  0  0  0  0  0
    5.7900   10.7236   25.7726 C   0  0  0  0  0  0  0  0  0  0  0  0
    5.4511    9.4377   26.0824 N   0  0  0  0  0  0  0  0  0  0  0  0
    5.0548   11.6128   26.1729 O   0  0  0  0  0  0  0  0  0  0  0  0
    7.5121   12.3624   24.8838 C   0  0  0  0  0  0  0  0  0  0  0  0
    8.6985   12.6572   24.2089 C   0  0  0  0  0  0  0  0  0  0  0  0
    9.4270   11.6198   23.6290 C   0  0  0  0  0  0  0  0  0  0  0  0
   10.6432   11.9456   22.9377 N   0  0  0  0  0  0  0  0  0  0  0  0
   11.7505   12.4203   23.6151 C   0  0  0  0  0  0  0  0  0  0  0  0
   11.9849   12.1897   24.7817 O   0  0  0  0  0  0  0  0  0  0  0  0
   12.7529   13.2193   22.7413 C   0  0  0  0  0  0  0  0  0  0  0  0
   12.2365   14.0485   21.6384 N   0  0  0  0  0  0  0  0  0  0  0  0
   12.4508   13.6766   19.8761 C   0  0  0  0  0  0  0  0  0  0  0  0
   11.8422   14.4701   19.1470 N   0  0  0  0  0  0  0  0  0  0  0  0
   11.0969   15.6800   19.5735 C   0  0  0  0  0  0  0  0  0  0  0  0
   10.3657   16.3916   18.4913 C   0  0  0  0  0  0  0  0  0  0  0  0
   10.5037   16.0128   17.1410 C   0  0  0  0  0  0  0  0  0  0  0  0
    9.7900   16.6664   16.1410 C   0  0  0  0  0  0  0  0  0  0  0  0
    8.9331   17.7271   16.4427 C   0  0  0  0  0  0  0  0  0  0  0  0
    8.8016   18.1341   17.7730 C   0  0  0  0  0  0  0  0  0  0  0  0
    9.5037   17.4743   18.7849 C   0  0  0  0  0  0  0  0  0  0  0  0
   11.1205   16.0684   20.8525 C   0  0  0  0  0  0  0  0  0  0  0  0
   11.6238   15.2608   21.9600 C   0  0  0  0  0  0  0  0  0  0  0  0
   11.4899   15.6326   23.1164 O   0  0  0  0  0  0  0  0  0  0  0  0
  1  2  1  0
  2  3  2  0
  3  4  1  0
  4  5  1  0
  5  6  1  0
  5  7  2  0
  4  8  2  0
  8  9  1  0
  9 10  2  0
 10 11  1  0
 11 12  1  0
 12 13  2  0
 12 14  1  0
 14 15  1  0
 15 16  1  0
 16 17  2  0
 17 18  1  0
 18 19  1  0
 19 20  2  0
 20 21  1  0
 21 22  2  0
 22 23  1  0
 23 24  2  0
 18 25  2  0
 25 26  1  0
 26 27  2  0
 10  2  1  0
 26 15  1  0
 24 19  1  0
M  END
>  <ref_pdb>  (96) 
x0554_0A

>  <ref_mols>  (96) 
x0310_0A,x0556_0A

>  <original SMILES>  (96) 
Cc1nc(C(N)=O)ccc1NC(=O)Cn1cnc(-c2ccccc2)cc1=O

>  <IC50 (nM)>  (96) 
1776.887777365303

>  <CNNaffinity>  (96) 
5.75034

>  <rationale>  (96) 
-1

$$$$
PV_005784389644
     RDKit          3D

 27 29  0  0  0  0  0  0  0  0999 V2000
    5.0211   15.1201   21.7686 C   0  0  0  0  0  0  0  0  0  0  0  0
    6.2570   15.1960   22.6799 C   0  0  0  0  0  0  0  0  0  0  0  0
    7.5191   15.6194   22.0150 C   0  0  0  0  0  0  0  0  0  0  0  0
    8.1132   16.8279   21.8327 C   0  0  0  0  0  0  0  0  0  0  0  0
    9.3462   16.5813   21.1474 C   0  0  0  0  0  0  0  0  0  0  0  0
    9.4053   15.2406   20.9196 C   0  0  0  0  0  0  0  0  0  0  0  0
   10.3410   14.3168   20.1695 C   0  0  1  0  0  0  0  0  0  0  0  0
   10.4732   14.6479   18.6536 C   0  0  0  0  0  0  0  0  0  0  0  0
   11.8383   15.3309   18.5313 C   0  0  0  0  0  0  0  0  0  0  0  0
   12.6873   14.5524   19.5199 C   0  0  0  0  0  0  0  0  0  0  0  0
   11.7523   14.3273   20.6237 N   0  0  0  0  0  0  0  0  0  0  0  0
   12.2105   14.3288   21.9259 C   0  0  0  0  0  0  0  0  0  0  0  0
   13.2999   14.7913   22.2142 O   0  0  0  0  0  0  0  0  0  0  0  0
   11.2472   13.7018   23.0414 C   0  0  0  0  0  0  0  0  0  0  0  0
   11.1464   14.2113   24.1396 O   0  0  0  0  0  0  0  0  0  0  0  0
   10.5603   12.5431   22.7037 N   0  0  0  0  0  0  0  0  0  0  0  0
    9.4590   12.0101   23.4283 C   0  0  0  0  0  0  0  0  0  0  0  0
    8.6362   12.8855   24.1413 C   0  0  0  0  0  0  0  0  0  0  0  0
    7.5465   12.3711   24.8374 C   0  0  0  0  0  0  0  0  0  0  0  0
    7.3094   10.9879   24.8360 C   0  0  0  0  0  0  0  0  0  0  0  0
    6.1192   10.4417   25.6641 C   0  0  0  0  0  0  0  0  0  0  0  0
    4.9930   11.2532   25.7030 N   0  0  0  0  0  0  0  0  0  0  0  0
    6.0997    9.4316   26.3338 O   0  0  0  0  0  0  0  0  0  0  0  0
    8.1040   10.1411   24.1405 N   0  0  0  0  0  0  0  0  0  0  0  0
    9.1417   10.6150   23.4519 C   0  0  0  0  0  0  0  0  0  0  0  0
    9.9644    9.5926   22.7056 C   0  0  0  0  0  0  0  0  0  0  0  0
    8.2967   14.6491   21.4556 O   0  0  0  0  0  0  0  0  0  0  0  0
  1  2  1  0
  2  3  1  0
  3  4  2  0
  4  5  1  0
  5  6  2  0
  7  6  1  1
  7  8  1  0
  8  9  1  0
  9 10  1  0
 10 11  1  0
 11 12  1  0
 12 13  2  0
 12 14  1  0
 14 15  2  0
 14 16  1  0
 16 17  1  0
 17 18  2  0
 18 19  1  0
 19 20  2  0
 20 21  1  0
 21 22  1  0
 21 23  2  0
 20 24  1  0
 24 25  2  0
 25 26  1  0
  6 27  1  0
 27  3  1  0
 11  7  1  0
 25 17  1  0
M  END
>  <ref_pdb>  (97) 
x0554_0A

>  <ref_mols>  (97) 
x0310_0A,x0556_0A

>  <original SMILES>  (97) 
CCc1ccc([C@H]2CCCN2C(=O)C(=O)Nc2ccc(C(N)=O)nc2C)o1

>  <IC50 (nM)>  (97) 
1777.5425276166413

>  <CNNaffinity>  (97) 
5.75018

>  <rationale>  (97) 
-1

$$$$
PV_002245628273
     RDKit          3D

 25 27  0  0  0  0  0  0  0  0999 V2000
    9.3276    8.8225   23.4981 C   0  0  0  0  0  0  0  0  0  0  0  0
    8.6926   10.0672   24.0629 C   0  0  0  0  0  0  0  0  0  0  0  0
    7.5369    9.9267   24.6960 N   0  0  0  0  0  0  0  0  0  0  0  0
    6.9224   10.9935   25.2145 C   0  0  0  0  0  0  0  0  0  0  0  0
    5.5913   10.7822   25.8875 C   0  0  0  0  0  0  0  0  0  0  0  0
    5.1796    9.4955   25.9443 N   0  0  0  0  0  0  0  0  0  0  0  0
    4.9603   11.7175   26.3554 O   0  0  0  0  0  0  0  0  0  0  0  0
    7.4670   12.2666   25.1789 C   0  0  0  0  0  0  0  0  0  0  0  0
    8.6970   12.4271   24.5678 C   0  0  0  0  0  0  0  0  0  0  0  0
    9.3055   11.3292   23.9703 C   0  0  0  0  0  0  0  0  0  0  0  0
   10.5266   11.4746   23.2744 N   0  0  0  0  0  0  0  0  0  0  0  0
   11.5046   12.3535   23.6992 C   0  0  0  0  0  0  0  0  0  0  0  0
   11.5764   12.7318   24.8519 O   0  0  0  0  0  0  0  0  0  0  0  0
   12.4002   12.8606   22.5855 C   0  0  0  0  0  0  0  0  0  0  0  0
   11.5920   13.9175   21.8136 C   0  0  0  0  0  0  0  0  0  0  0  0
   12.1549   14.3541   20.4667 C   0  0  0  0  0  0  0  0  0  0  0  0
   11.2730   15.3756   19.8149 C   0  0  0  0  0  0  0  0  0  0  0  0
   11.0080   16.6494   20.2190 C   0  0  0  0  0  0  0  0  0  0  0  0
   10.2211   17.2908   19.2774 N   0  0  0  0  0  0  0  0  0  0  0  0
    9.9061   16.4016   18.2702 C   0  0  0  0  0  0  0  0  0  0  0  0
    9.1158   16.5135   17.1178 C   0  0  0  0  0  0  0  0  0  0  0  0
    8.9541   15.3769   16.3404 C   0  0  0  0  0  0  0  0  0  0  0  0
    9.5638   14.1549   16.6757 C   0  0  0  0  0  0  0  0  0  0  0  0
   10.3273   14.0566   17.8166 C   0  0  0  0  0  0  0  0  0  0  0  0
   10.5366   15.1883   18.5997 C   0  0  0  0  0  0  0  0  0  0  0  0
  1  2  1  0
  2  3  2  0
  3  4  1  0
  4  5  1  0
  5  6  1  0
  5  7  2  0
  4  8  2  0
  8  9  1  0
  9 10  2  0
 10 11  1  0
 11 12  1  0
 12 13  2  0
 12 14  1  0
 14 15  1  0
 15 16  1  0
 16 17  1  0
 17 18  2  0
 18 19  1  0
 19 20  1  0
 20 21  2  0
 21 22  1  0
 22 23  2  0
 23 24  1  0
 24 25  2  0
 10  2  1  0
 25 17  1  0
 25 20  1  0
M  END
>  <ref_pdb>  (98) 
x0554_0A

>  <ref_mols>  (98) 
x0310_0A,x0556_0A

>  <original SMILES>  (98) 
Cc1nc(C(N)=O)ccc1NC(=O)CCCc1c[nH]c2ccccc12

>  <IC50 (nM)>  (98) 
1800.8187339941687

>  <CNNaffinity>  (98) 
5.74453

>  <rationale>  (98) 
-1

$$$$
PV_005832151377
     RDKit          3D

 27 29  0  0  0  0  0  0  0  0999 V2000
    9.0791    9.1961   24.2183 C   0  0  0  0  0  0  0  0  0  0  0  0
    8.1259   10.2971   24.6075 C   0  0  0  0  0  0  0  0  0  0  0  0
    7.0626    9.9439   25.3246 N   0  0  0  0  0  0  0  0  0  0  0  0
    6.1317   10.8699   25.6604 C   0  0  0  0  0  0  0  0  0  0  0  0
    4.8562   10.4139   26.4029 C   0  0  0  0  0  0  0  0  0  0  0  0
    4.5218    9.0900   26.3725 N   0  0  0  0  0  0  0  0  0  0  0  0
    4.1104   11.1970   26.9686 O   0  0  0  0  0  0  0  0  0  0  0  0
    6.2922   12.2229   25.3309 C   0  0  0  0  0  0  0  0  0  0  0  0
    7.4015   12.6145   24.5803 C   0  0  0  0  0  0  0  0  0  0  0  0
    8.3414   11.6533   24.2243 C   0  0  0  0  0  0  0  0  0  0  0  0
    9.5294   12.0253   23.5397 N   0  0  0  0  0  0  0  0  0  0  0  0
    9.6746   13.0043   22.5947 C   0  0  0  0  0  0  0  0  0  0  0  0
    8.7400   13.5578   22.0355 O   0  0  0  0  0  0  0  0  0  0  0  0
   11.2163   13.3161   22.3233 C   0  0  0  0  0  0  0  0  0  0  0  0
   12.0242   13.0814   23.2230 O   0  0  0  0  0  0  0  0  0  0  0  0
   11.6334   13.8236   21.1173 N   0  0  0  0  0  0  0  0  0  0  0  0
   12.8571   14.6028   21.1393 C   0  0  0  0  0  0  0  0  0  0  0  0
   12.6277   16.0976   21.4495 C   0  0  0  0  0  0  0  0  0  0  0  0
   11.1727   16.6479   21.4762 C   0  0  0  0  0  0  0  0  0  0  0  0
   10.1304   16.2269   20.3959 C   0  0  0  0  0  0  0  0  0  0  0  0
   10.5527   15.2462   19.2659 C   0  0  0  0  0  0  0  0  0  0  0  0
    9.3375   15.0310   18.3004 C   0  0  0  0  0  0  0  0  0  0  0  0
    9.2044   16.1344   17.2455 C   0  0  0  0  0  0  0  0  0  0  0  0
   10.3673   16.0312   16.2445 C   0  0  0  0  0  0  0  0  0  0  0  0
   11.6989   15.6373   16.9269 C   0  0  0  0  0  0  0  0  0  0  0  0
   11.7258   15.8810   18.4452 C   0  0  0  0  0  0  0  0  0  0  0  0
   10.8797   13.8440   19.8675 C   0  0  0  0  0  0  0  0  0  0  0  0
  1  2  1  0
  2  3  2  0
  3  4  1  0
  4  5  1  0
  5  6  1  0
  5  7  2  0
  4  8  2  0
  8  9  1  0
  9 10  2  0
 10 11  1  0
 11 12  1  0
 12 13  2  0
 12 14  1  0
 14 15  2  0
 14 16  1  0
 16 17  1  0
 17 18  1  0
 18 19  1  0
 19 20  1  0
 20 21  1  0
 21 22  1  0
 22 23  1  0
 23 24  1  0
 24 25  1  0
 25 26  1  0
 21 27  1  0
 10  2  1  0
 27 16  1  0
 26 21  1  0
M  END
>  <ref_pdb>  (99) 
x0554_0A

>  <ref_mols>  (99) 
x0310_0A,x0556_0A

>  <original SMILES>  (99) 
Cc1nc(C(N)=O)ccc1NC(=O)C(=O)N1CCCCC2(CCCCC2)C1

>  <IC50 (nM)>  (99) 
1816.5192310760535

>  <CNNaffinity>  (99) 
5.74076

>  <rationale>  (99) 
-1

$$$$
PV_006682154812
     RDKit          3D

 25 27  0  0  0  0  0  0  0  0999 V2000
    9.7401    9.8959   23.0081 C   0  0  0  0  0  0  0  0  0  0  0  0
    8.9032   10.9853   23.6250 C   0  0  0  0  0  0  0  0  0  0  0  0
    7.9163   10.6047   24.4270 N   0  0  0  0  0  0  0  0  0  0  0  0
    7.1576   11.5285   25.0279 C   0  0  0  0  0  0  0  0  0  0  0  0
    6.0648   11.0427   25.9505 C   0  0  0  0  0  0  0  0  0  0  0  0
    5.9180    9.6978   25.9866 N   0  0  0  0  0  0  0  0  0  0  0  0
    5.3910   11.8204   26.6081 O   0  0  0  0  0  0  0  0  0  0  0  0
    7.3438   12.8904   24.8463 C   0  0  0  0  0  0  0  0  0  0  0  0
    8.3539   13.3043   23.9889 C   0  0  0  0  0  0  0  0  0  0  0  0
    9.1472   12.3472   23.3729 C   0  0  0  0  0  0  0  0  0  0  0  0
   10.2302   12.7192   22.5307 N   0  0  0  0  0  0  0  0  0  0  0  0
   10.1176   13.6029   21.4946 C   0  0  0  0  0  0  0  0  0  0  0  0
    9.0742   14.0322   21.0465 O   0  0  0  0  0  0  0  0  0  0  0  0
   11.5158   14.0374   20.9722 C   0  0  0  0  0  0  0  0  0  0  0  0
   12.4666   13.9183   21.7245 O   0  0  0  0  0  0  0  0  0  0  0  0
   11.6364   14.6362   19.7360 N   0  0  0  0  0  0  0  0  0  0  0  0
   12.4874   15.8255   19.6028 C   0  0  0  0  0  0  0  0  0  0  0  0
   12.4552   16.1745   18.0970 C   0  0  0  0  0  0  0  0  0  0  0  0
   11.4015   15.2786   17.5405 C   0  0  0  0  0  0  0  0  0  0  0  0
   10.8266   15.2492   16.2852 C   0  0  0  0  0  0  0  0  0  0  0  0
    9.9288   14.2333   15.9807 C   0  0  0  0  0  0  0  0  0  0  0  0
    9.6997   13.2430   16.9200 C   0  0  0  0  0  0  0  0  0  0  0  0
    8.9107   12.2184   16.5709 F   0  0  0  0  0  0  0  0  0  0  0  0
   10.2654   13.2617   18.1826 C   0  0  0  0  0  0  0  0  0  0  0  0
   11.0327   14.3519   18.5071 C   0  0  0  0  0  0  0  0  0  0  0  0
  1  2  1  0
  2  3  2  0
  3  4  1  0
  4  5  1  0
  5  6  1  0
  5  7  2  0
  4  8  2  0
  8  9  1  0
  9 10  2  0
 10 11  1  0
 11 12  1  0
 12 13  2  0
 12 14  1  0
 14 15  2  0
 14 16  1  0
 16 17  1  0
 17 18  1  0
 18 19  1  0
 19 20  2  0
 20 21  1  0
 21 22  2  0
 22 23  1  0
 22 24  1  0
 24 25  2  0
 10  2  1  0
 25 16  1  0
 25 19  1  0
M  END
>  <ref_pdb>  (100) 
x0554_0A

>  <ref_mols>  (100) 
x0310_0A,x0556_0A

>  <original SMILES>  (100) 
Cc1nc(C(N)=O)ccc1NC(=O)C(=O)N1CCc2ccc(F)cc21

>  <IC50 (nM)>  (100) 
1827.6372455831386

>  <CNNaffinity>  (100) 
5.73811

>  <rationale>  (100) 
-1

$$$$
PV_005857522316
     RDKit          3D

 27 29  0  0  0  0  0  0  0  0999 V2000
    9.8594    9.1368   23.5867 C   0  0  0  0  0  0  0  0  0  0  0  0
    8.9586   10.2775   23.9846 C   0  0  0  0  0  0  0  0  0  0  0  0
    7.8967    9.9458   24.7156 N   0  0  0  0  0  0  0  0  0  0  0  0
    6.9921   10.8902   25.0674 C   0  0  0  0  0  0  0  0  0  0  0  0
    5.7437   10.4507   25.8773 C   0  0  0  0  0  0  0  0  0  0  0  0
    5.4231   11.1893   26.9982 N   0  0  0  0  0  0  0  0  0  0  0  0
    4.9864    9.5482   25.5803 O   0  0  0  0  0  0  0  0  0  0  0  0
    7.1586   12.2316   24.6903 C   0  0  0  0  0  0  0  0  0  0  0  0
    8.2670   12.5975   23.9290 C   0  0  0  0  0  0  0  0  0  0  0  0
    9.2106   11.6294   23.5852 C   0  0  0  0  0  0  0  0  0  0  0  0
   10.3807   12.0194   22.8672 N   0  0  0  0  0  0  0  0  0  0  0  0
   10.4591   13.0439   21.9505 C   0  0  0  0  0  0  0  0  0  0  0  0
    9.4721   13.6276   21.5297 O   0  0  0  0  0  0  0  0  0  0  0  0
   11.9489   13.3857   21.4370 C   0  0  0  0  0  0  0  0  0  0  0  0
   12.8638   12.5798   21.4839 O   0  0  0  0  0  0  0  0  0  0  0  0
   12.1394   14.6698   20.9142 N   0  0  0  0  0  0  0  0  0  0  0  0
   12.7239   14.7529   19.5806 C   0  0  0  0  0  0  0  0  0  0  0  0
   11.7284   14.4350   18.4562 C   0  0  0  0  0  0  0  0  0  0  0  0
   10.4240   15.2673   18.4278 C   0  0  0  0  0  0  0  0  0  0  0  0
   10.4614   16.6070   19.1850 C   0  0  0  0  0  0  0  0  0  0  0  0
   10.3270   16.4585   20.7088 C   0  0  0  0  0  0  0  0  0  0  0  0
   11.5415   15.8925   21.4878 C   0  0  1  0  0  0  0  0  0  0  0  0
   11.2009   15.7427   22.9667 C   0  0  0  0  0  0  0  0  0  0  0  0
   10.1537   16.1230   23.7442 C   0  0  0  0  0  0  0  0  0  0  0  0
   10.4747   15.7330   25.0920 C   0  0  0  0  0  0  0  0  0  0  0  0
   11.6727   15.1059   25.0079 C   0  0  0  0  0  0  0  0  0  0  0  0
   12.1109   15.0730   23.7240 O   0  0  0  0  0  0  0  0  0  0  0  0
  1  2  1  0
  2  3  2  0
  3  4  1  0
  4  5  1  0
  5  6  1  0
  5  7  2  0
  4  8  2  0
  8  9  1  0
  9 10  2  0
 10 11  1  0
 11 12  1  0
 12 13  2  0
 12 14  1  0
 14 15  2  0
 14 16  1  0
 16 17  1  0
 17 18  1  0
 18 19  1  0
 19 20  1  0
 20 21  1  0
 21 22  1  0
 22 23  1  1
 23 24  2  0
 24 25  1  0
 25 26  2  0
 26 27  1  0
 10  2  1  0
 22 16  1  0
 27 23  1  0
M  END
>  <ref_pdb>  (101) 
x0554_0A

>  <ref_mols>  (101) 
x0310_0A,x0556_0A

>  <original SMILES>  (101) 
Cc1nc(C(N)=O)ccc1NC(=O)C(=O)N1CCCCC[C@H]1c1ccco1

>  <IC50 (nM)>  (101) 
1833.960594749829

>  <CNNaffinity>  (101) 
5.73661

>  <rationale>  (101) 
-1

$$$$
Z5465762832
     RDKit          3D

 25 27  0  0  0  0  0  0  0  0999 V2000
    9.7212    9.0393   23.1691 C   0  0  0  0  0  0  0  0  0  0  0  0
    8.9841   10.2140   23.7668 C   0  0  0  0  0  0  0  0  0  0  0  0
    7.8807    9.9518   24.4666 N   0  0  0  0  0  0  0  0  0  0  0  0
    7.1840   10.9714   24.9846 C   0  0  0  0  0  0  0  0  0  0  0  0
    5.9382   10.7220   25.8048 C   0  0  0  0  0  0  0  0  0  0  0  0
    5.6318    9.4283   26.0435 N   0  0  0  0  0  0  0  0  0  0  0  0
    5.2834   11.6517   26.2485 O   0  0  0  0  0  0  0  0  0  0  0  0
    7.5547   12.2971   24.8387 C   0  0  0  0  0  0  0  0  0  0  0  0
    8.7248   12.5865   24.1701 C   0  0  0  0  0  0  0  0  0  0  0  0
    9.4501   11.5376   23.6170 C   0  0  0  0  0  0  0  0  0  0  0  0
   10.6412   11.8111   22.8982 N   0  0  0  0  0  0  0  0  0  0  0  0
   11.4873   12.8205   23.2854 C   0  0  0  0  0  0  0  0  0  0  0  0
   11.4124   13.3685   24.3680 O   0  0  0  0  0  0  0  0  0  0  0  0
   12.5407   13.2478   22.2528 C   0  0  0  0  0  0  0  0  0  0  0  0
   12.0220   13.4362   20.9467 O   0  0  0  0  0  0  0  0  0  0  0  0
   11.0936   14.4069   20.7312 C   0  0  0  0  0  0  0  0  0  0  0  0
   10.6897   15.3736   21.6462 C   0  0  0  0  0  0  0  0  0  0  0  0
    9.7646   16.3398   21.2470 C   0  0  0  0  0  0  0  0  0  0  0  0
    9.2548   16.3612   19.9565 C   0  0  0  0  0  0  0  0  0  0  0  0
    9.6191   15.3754   19.0347 C   0  0  0  0  0  0  0  0  0  0  0  0
    9.0665   15.2851   17.6450 C   0  0  0  0  0  0  0  0  0  0  0  0
    9.0460   16.5119   16.7773 C   0  0  0  0  0  0  0  0  0  0  0  0
    9.9734   15.3806   16.4503 C   0  0  0  0  0  0  0  0  0  0  0  0
   10.5214   14.4180   19.4554 C   0  0  0  0  0  0  0  0  0  0  0  0
   10.8772   13.4591   18.5896 F   0  0  0  0  0  0  0  0  0  0  0  0
  1  2  1  0
  2  3  2  0
  3  4  1  0
  4  5  1  0
  5  6  1  0
  5  7  2  0
  4  8  2  0
  8  9  1  0
  9 10  2  0
 10 11  1  0
 11 12  1  0
 12 13  2  0
 12 14  1  0
 14 15  1  0
 15 16  1  0
 16 17  2  0
 17 18  1  0
 18 19  2  0
 19 20  1  0
 20 21  1  0
 21 22  1  0
 22 23  1  0
 20 24  2  0
 24 25  1  0
 10  2  1  0
 24 16  1  0
 23 21  1  0
M  END
>  <ref_pdb>  (102) 
x0554_0A

>  <ref_mols>  (102) 
x0310_0A,x0556_0A

>  <original SMILES>  (102) 
Cc1nc(C(N)=O)ccc1NC(=O)COc1cccc(C2CC2)c1F

>  <IC50 (nM)>  (102) 
1843.614011028872

>  <CNNaffinity>  (102) 
5.73433

>  <rationale>  (102) 
-1

$$$$
PV_006983569757
     RDKit          3D

 26 28  0  0  0  0  0  0  0  0999 V2000
    9.7053    9.1870   23.3997 C   0  0  0  0  0  0  0  0  0  0  0  0
    8.9259   10.3427   23.9760 C   0  0  0  0  0  0  0  0  0  0  0  0
    7.8031   10.0182   24.6025 N   0  0  0  0  0  0  0  0  0  0  0  0
    7.0372   10.9735   25.1312 C   0  0  0  0  0  0  0  0  0  0  0  0
    5.7660   10.5328   25.8182 C   0  0  0  0  0  0  0  0  0  0  0  0
    5.3726   11.3709   26.8366 N   0  0  0  0  0  0  0  0  0  0  0  0
    5.1108    9.5657   25.4965 O   0  0  0  0  0  0  0  0  0  0  0  0
    7.3657   12.3215   25.0472 C   0  0  0  0  0  0  0  0  0  0  0  0
    8.5160   12.6864   24.3750 C   0  0  0  0  0  0  0  0  0  0  0  0
    9.3216   11.6907   23.8321 C   0  0  0  0  0  0  0  0  0  0  0  0
   10.5055   12.0409   23.1383 N   0  0  0  0  0  0  0  0  0  0  0  0
   10.6169   13.1738   22.3870 C   0  0  0  0  0  0  0  0  0  0  0  0
    9.7449   14.0128   22.2612 O   0  0  0  0  0  0  0  0  0  0  0  0
   11.9619   13.2744   21.6187 C   0  0  0  0  0  0  0  0  0  0  0  0
   12.8187   12.4189   21.7828 O   0  0  0  0  0  0  0  0  0  0  0  0
   12.0280   14.2942   20.7120 N   0  0  0  0  0  0  0  0  0  0  0  0
   12.8317   14.1555   19.5021 C   0  0  0  0  0  0  0  0  0  0  0  0
   12.0313   14.6232   18.2923 C   0  0  0  0  0  0  0  0  0  0  0  0
   11.4864   16.0444   18.4841 C   0  0  1  0  0  0  0  0  0  0  0  0
   10.5230   16.4871   17.3696 C   0  0  0  0  0  0  0  0  0  0  0  0
    9.1502   15.7883   17.4371 C   0  0  0  0  0  0  0  0  0  0  0  0
    8.9716   15.1378   18.8174 C   0  0  0  0  0  0  0  0  0  0  0  0
    9.4364   15.9086   19.9473 N   0  0  0  0  0  0  0  0  0  0  0  0
    8.5592   16.9354   20.4563 C   0  0  0  0  0  0  0  0  0  0  0  0
   10.8332   16.3054   19.8644 C   0  0  1  0  0  0  0  0  0  0  0  0
   11.6611   15.6777   20.9960 C   0  0  0  0  0  0  0  0  0  0  0  0
  1  2  1  0
  2  3  2  0
  3  4  1  0
  4  5  1  0
  5  6  1  0
  5  7  2  0
  4  8  2  0
  8  9  1  0
  9 10  2  0
 10 11  1  0
 11 12  1  0
 12 13  2  0
 12 14  1  0
 14 15  2  0
 14 16  1  0
 16 17  1  0
 17 18  1  0
 19 18  1  6
 19 20  1  0
 20 21  1  0
 21 22  1  0
 22 23  1  0
 23 24  1  0
 23 25  1  0
 25 26  1  1
 10  2  1  0
 26 16  1  0
 25 19  1  0
M  END
>  <ref_pdb>  (103) 
x0554_0A

>  <ref_mols>  (103) 
x0310_0A,x0556_0A

>  <original SMILES>  (103) 
Cc1nc(C(N)=O)ccc1NC(=O)C(=O)N1CC[C@H]2CCCN(C)[C@H]2C1

>  <IC50 (nM)>  (103) 
1845.5677814964026

>  <CNNaffinity>  (103) 
5.73387

>  <rationale>  (103) 
-1

$$$$
PV_002395532829
     RDKit          3D

 25 27  0  0  0  0  0  0  0  0999 V2000
    9.6515    9.0657   23.2227 C   0  0  0  0  0  0  0  0  0  0  0  0
    8.9305   10.2567   23.7999 C   0  0  0  0  0  0  0  0  0  0  0  0
    7.8128   10.0276   24.4809 N   0  0  0  0  0  0  0  0  0  0  0  0
    7.1312   11.0559   24.9980 C   0  0  0  0  0  0  0  0  0  0  0  0
    5.8930   10.7754   25.8177 C   0  0  0  0  0  0  0  0  0  0  0  0
    5.6305    9.4673   26.0493 N   0  0  0  0  0  0  0  0  0  0  0  0
    5.2138   11.6863   26.2649 O   0  0  0  0  0  0  0  0  0  0  0  0
    7.5320   12.3723   24.8341 C   0  0  0  0  0  0  0  0  0  0  0  0
    8.7127   12.6280   24.1594 C   0  0  0  0  0  0  0  0  0  0  0  0
    9.4414   11.5599   23.6537 C   0  0  0  0  0  0  0  0  0  0  0  0
   10.6827   11.7699   23.0055 N   0  0  0  0  0  0  0  0  0  0  0  0
   11.5902   12.7033   23.4481 C   0  0  0  0  0  0  0  0  0  0  0  0
   11.4984   13.2525   24.5264 O   0  0  0  0  0  0  0  0  0  0  0  0
   12.7166   13.0483   22.4732 C   0  0  0  0  0  0  0  0  0  0  0  0
   12.2874   14.1239   21.5171 C   0  0  0  0  0  0  0  0  0  0  0  0
   12.2889   15.4686   21.6538 C   0  0  0  0  0  0  0  0  0  0  0  0
   11.6893   16.0182   20.5516 O   0  0  0  0  0  0  0  0  0  0  0  0
   11.3489   14.9527   19.7935 C   0  0  0  0  0  0  0  0  0  0  0  0
   10.6299   15.1384   18.5345 C   0  0  0  0  0  0  0  0  0  0  0  0
   10.3578   16.3996   18.0008 C   0  0  0  0  0  0  0  0  0  0  0  0
    9.6211   16.4920   16.8257 C   0  0  0  0  0  0  0  0  0  0  0  0
    9.1593   15.3389   16.1950 C   0  0  0  0  0  0  0  0  0  0  0  0
    9.4403   14.0846   16.7236 C   0  0  0  0  0  0  0  0  0  0  0  0
   10.1879   13.9865   17.8851 C   0  0  0  0  0  0  0  0  0  0  0  0
   11.6774   13.8143   20.3158 N   0  0  0  0  0  0  0  0  0  0  0  0
  1  2  1  0
  2  3  2  0
  3  4  1  0
  4  5  1  0
  5  6  1  0
  5  7  2  0
  4  8  2  0
  8  9  1  0
  9 10  2  0
 10 11  1  0
 11 12  1  0
 12 13  2  0
 12 14  1  0
 14 15  1  0
 15 16  2  0
 16 17  1  0
 17 18  1  0
 18 19  1  0
 19 20  2  0
 20 21  1  0
 21 22  2  0
 22 23  1  0
 23 24  2  0
 18 25  2  0
 10  2  1  0
 25 15  1  0
 24 19  1  0
M  END
>  <ref_pdb>  (104) 
x0554_0A

>  <ref_mols>  (104) 
x0310_0A,x0556_0A

>  <original SMILES>  (104) 
Cc1nc(C(N)=O)ccc1NC(=O)Cc1coc(-c2ccccc2)n1

>  <IC50 (nM)>  (104) 
1863.974642849412

>  <CNNaffinity>  (104) 
5.72956

>  <rationale>  (104) 
-1

$$$$
PV_002503278532
     RDKit          3D

 25 26  0  0  0  0  0  0  0  0999 V2000
    9.6574    9.0800   23.1864 C   0  0  0  0  0  0  0  0  0  0  0  0
    8.9143   10.2659   23.7436 C   0  0  0  0  0  0  0  0  0  0  0  0
    7.8214   10.0322   24.4617 N   0  0  0  0  0  0  0  0  0  0  0  0
    7.1461   11.0598   24.9895 C   0  0  0  0  0  0  0  0  0  0  0  0
    5.9119   10.7852   25.8128 C   0  0  0  0  0  0  0  0  0  0  0  0
    5.6463    9.4791   26.0549 N   0  0  0  0  0  0  0  0  0  0  0  0
    5.2346   11.7010   26.2506 O   0  0  0  0  0  0  0  0  0  0  0  0
    7.5456   12.3774   24.8427 C   0  0  0  0  0  0  0  0  0  0  0  0
    8.6979   12.6324   24.1183 C   0  0  0  0  0  0  0  0  0  0  0  0
    9.3882   11.5732   23.5392 C   0  0  0  0  0  0  0  0  0  0  0  0
   10.5389   11.7994   22.7359 N   0  0  0  0  0  0  0  0  0  0  0  0
   11.4597   12.7797   23.0500 C   0  0  0  0  0  0  0  0  0  0  0  0
   11.6858   13.0880   24.2041 O   0  0  0  0  0  0  0  0  0  0  0  0
   12.0854   13.5316   21.8713 C   0  0  0  0  0  0  0  0  0  0  0  0
   11.0447   14.4458   21.2696 C   0  0  0  0  0  0  0  0  0  0  0  0
   10.3337   15.3967   21.9793 C   0  0  0  0  0  0  0  0  0  0  0  0
   10.6004   15.9304   23.3536 C   0  0  0  0  0  0  0  0  0  0  0  0
    9.3589   15.8496   21.1467 N   0  0  0  0  0  0  0  0  0  0  0  0
    8.3381   16.8450   21.4225 C   0  0  0  0  0  0  0  0  0  0  0  0
    7.3168   16.4413   22.4966 C   0  0  0  0  0  0  0  0  0  0  0  0
    6.2902   17.5631   22.6655 C   0  0  0  0  0  0  0  0  0  0  0  0
    6.6529   15.0992   22.1824 C   0  0  0  0  0  0  0  0  0  0  0  0
    9.4566   15.3195   19.9144 N   0  0  0  0  0  0  0  0  0  0  0  0
   10.4888   14.4811   19.9736 C   0  0  0  0  0  0  0  0  0  0  0  0
   10.9509   13.7821   18.7339 C   0  0  0  0  0  0  0  0  0  0  0  0
  1  2  1  0
  2  3  2  0
  3  4  1  0
  4  5  1  0
  5  6  1  0
  5  7  2  0
  4  8  2  0
  8  9  1  0
  9 10  2  0
 10 11  1  0
 11 12  1  0
 12 13  2  0
 12 14  1  0
 14 15  1  0
 15 16  2  0
 16 17  1  0
 16 18  1  0
 18 19  1  0
 19 20  1  0
 20 21  1  0
 20 22  1  0
 18 23  1  0
 23 24  2  0
 24 25  1  0
 10  2  1  0
 24 15  1  0
M  END
>  <ref_pdb>  (105) 
x0554_0A

>  <ref_mols>  (105) 
x0310_0A,x0556_0A

>  <original SMILES>  (105) 
Cc1nc(C(N)=O)ccc1NC(=O)Cc1c(C)nn(CC(C)C)c1C

>  <IC50 (nM)>  (105) 
1865.0479417966305

>  <CNNaffinity>  (105) 
5.72931

>  <rationale>  (105) 
-1

$$$$
PV_006232225154
     RDKit          3D

 24 25  0  0  0  0  0  0  0  0999 V2000
    8.4158   14.6040   16.4353 C   0  0  0  0  0  0  0  0  0  0  0  0
   10.0346   13.8377   16.2102 S   0  0  0  0  0  0  0  0  0  0  0  0
   10.6237   13.9744   17.8319 C   0  0  0  0  0  0  0  0  0  0  0  0
   11.6815   14.8540   18.1755 C   0  0  1  0  0  0  0  0  0  0  0  0
   11.2617   16.3334   18.5659 C   0  0  0  0  0  0  0  0  0  0  0  0
   10.6944   16.4865   19.9777 C   0  0  0  0  0  0  0  0  0  0  0  0
   11.5652   15.8060   21.0213 C   0  0  0  0  0  0  0  0  0  0  0  0
   11.6453   14.3141   20.5807 N   0  0  0  0  0  0  0  0  0  0  0  0
   11.8697   13.3270   21.6065 C   0  0  0  0  0  0  0  0  0  0  0  0
   12.9173   12.8120   21.9000 O   0  0  0  0  0  0  0  0  0  0  0  0
   10.4779   13.0372   22.2183 C   0  0  0  0  0  0  0  0  0  0  0  0
    9.5357   13.6614   21.7472 O   0  0  0  0  0  0  0  0  0  0  0  0
   10.3973   12.0779   23.1672 N   0  0  0  0  0  0  0  0  0  0  0  0
    9.1891   11.7700   23.8465 C   0  0  0  0  0  0  0  0  0  0  0  0
    8.3889   12.7983   24.3305 C   0  0  0  0  0  0  0  0  0  0  0  0
    7.2426   12.4748   25.0368 C   0  0  0  0  0  0  0  0  0  0  0  0
    6.9385   11.1330   25.2110 C   0  0  0  0  0  0  0  0  0  0  0  0
    5.7154   10.7696   26.0189 C   0  0  0  0  0  0  0  0  0  0  0  0
    5.4715    9.4420   26.1004 N   0  0  0  0  0  0  0  0  0  0  0  0
    5.0295   11.6242   26.5549 O   0  0  0  0  0  0  0  0  0  0  0  0
    7.6840   10.1403   24.7075 N   0  0  0  0  0  0  0  0  0  0  0  0
    8.7810   10.4318   24.0173 C   0  0  0  0  0  0  0  0  0  0  0  0
    9.5332    9.2848   23.3883 C   0  0  0  0  0  0  0  0  0  0  0  0
   12.5166   14.2498   19.3609 C   0  0  0  0  0  0  0  0  0  0  0  0
  1  2  1  0
  2  3  1  0
  4  3  1  1
  4  5  1  0
  5  6  1  0
  6  7  1  0
  7  8  1  0
  8  9  1  0
  9 10  2  0
  9 11  1  0
 11 12  2  0
 11 13  1  0
 13 14  1  0
 14 15  2  0
 15 16  1  0
 16 17  2  0
 17 18  1  0
 18 19  1  0
 18 20  2  0
 17 21  1  0
 21 22  2  0
 22 23  1  0
  8 24  1  0
 24  4  1  0
 22 14  1  0
M  END
>  <ref_pdb>  (106) 
x0554_0A

>  <ref_mols>  (106) 
x0310_0A,x0556_0A

>  <original SMILES>  (106) 
CSC[C@H]1CCCN(C(=O)C(=O)Nc2ccc(C(N)=O)nc2C)C1

>  <IC50 (nM)>  (106) 
1870.5529226845667

>  <CNNaffinity>  (106) 
5.72803

>  <rationale>  (106) 
-1

$$$$
PV_002136822031
     RDKit          3D

 25 28  0  0  0  0  0  0  0  0999 V2000
    9.5850    9.3522   23.3245 C   0  0  0  0  0  0  0  0  0  0  0  0
    8.8218   10.5089   23.9131 C   0  0  0  0  0  0  0  0  0  0  0  0
    7.7435   10.2216   24.6293 N   0  0  0  0  0  0  0  0  0  0  0  0
    7.0262   11.2152   25.1674 C   0  0  0  0  0  0  0  0  0  0  0  0
    5.8137   10.8548   25.9897 C   0  0  0  0  0  0  0  0  0  0  0  0
    5.5730    9.5285   26.0819 N   0  0  0  0  0  0  0  0  0  0  0  0
    5.1288   11.7093   26.5301 O   0  0  0  0  0  0  0  0  0  0  0  0
    7.3568   12.5517   25.0132 C   0  0  0  0  0  0  0  0  0  0  0  0
    8.4628   12.8729   24.2475 C   0  0  0  0  0  0  0  0  0  0  0  0
    9.2158   11.8445   23.6944 C   0  0  0  0  0  0  0  0  0  0  0  0
   10.3795   12.1221   22.9409 N   0  0  0  0  0  0  0  0  0  0  0  0
   10.4639   13.1977   22.0851 C   0  0  0  0  0  0  0  0  0  0  0  0
    9.4683   13.8192   21.7522 O   0  0  0  0  0  0  0  0  0  0  0  0
   11.8657   13.6136   21.6323 C   0  0  2  0  0  0  0  0  0  0  0  0
   12.4042   14.7362   22.5428 C   0  0  0  0  0  0  0  0  0  0  0  0
   11.4802   15.9559   22.5261 C   0  0  0  0  0  0  0  0  0  0  0  0
   10.9526   16.2251   21.1567 C   0  0  0  0  0  0  0  0  0  0  0  0
   10.1589   17.2050   20.8145 N   0  0  0  0  0  0  0  0  0  0  0  0
    9.8489   17.0338   19.4865 N   0  0  0  0  0  0  0  0  0  0  0  0
   10.4735   15.9614   19.0695 C   0  0  0  0  0  0  0  0  0  0  0  0
   10.3379   15.4366   17.6964 C   0  0  0  0  0  0  0  0  0  0  0  0
   11.4529   14.7785   16.9474 C   0  0  0  0  0  0  0  0  0  0  0  0
   11.0416   16.1729   16.5843 C   0  0  0  0  0  0  0  0  0  0  0  0
   11.2106   15.4189   20.0889 N   0  0  0  0  0  0  0  0  0  0  0  0
   11.8725   14.1181   20.1799 C   0  0  0  0  0  0  0  0  0  0  0  0
  1  2  1  0
  2  3  2  0
  3  4  1  0
  4  5  1  0
  5  6  1  0
  5  7  2  0
  4  8  2  0
  8  9  1  0
  9 10  2  0
 10 11  1  0
 11 12  1  0
 12 13  2  0
 14 12  1  1
 14 15  1  0
 15 16  1  0
 16 17  1  0
 17 18  2  0
 18 19  1  0
 19 20  2  0
 20 21  1  0
 21 22  1  0
 22 23  1  0
 20 24  1  0
 24 25  1  0
 10  2  1  0
 25 14  1  0
 24 17  1  0
 23 21  1  0
M  END
>  <ref_pdb>  (107) 
x0554_0A

>  <ref_mols>  (107) 
x0310_0A,x0556_0A

>  <original SMILES>  (107) 
Cc1nc(C(N)=O)ccc1NC(=O)[C@@H]1CCc2nnc(C3CC3)n2C1

>  <IC50 (nM)>  (107) 
1873.440911682856

>  <CNNaffinity>  (107) 
5.72736

>  <rationale>  (107) 
-1

$$$$
PV_002244549125
     RDKit          3D

 27 29  0  0  0  0  0  0  0  0999 V2000
    9.6842    9.2084   23.2487 C   0  0  0  0  0  0  0  0  0  0  0  0
    8.9538   10.3720   23.8703 C   0  0  0  0  0  0  0  0  0  0  0  0
    7.8170   10.1324   24.5136 N   0  0  0  0  0  0  0  0  0  0  0  0
    7.1080   11.1620   24.9972 C   0  0  0  0  0  0  0  0  0  0  0  0
    5.8547   10.8750   25.7892 C   0  0  0  0  0  0  0  0  0  0  0  0
    5.5922    9.5623   25.9671 N   0  0  0  0  0  0  0  0  0  0  0  0
    5.1671   11.7759   26.2424 O   0  0  0  0  0  0  0  0  0  0  0  0
    7.4872   12.4834   24.8317 C   0  0  0  0  0  0  0  0  0  0  0  0
    8.7039   12.7457   24.2315 C   0  0  0  0  0  0  0  0  0  0  0  0
    9.4667   11.6793   23.7712 C   0  0  0  0  0  0  0  0  0  0  0  0
   10.7354   11.9027   23.1883 N   0  0  0  0  0  0  0  0  0  0  0  0
   11.5675   12.9200   23.5960 C   0  0  0  0  0  0  0  0  0  0  0  0
   11.4327   13.4710   24.6735 O   0  0  0  0  0  0  0  0  0  0  0  0
   12.6594   13.3429   22.6122 C   0  0  2  0  0  0  0  0  0  0  0  0
   13.1801   14.7398   22.9436 C   0  0  0  0  0  0  0  0  0  0  0  0
   13.2913   15.4698   21.6184 C   0  0  0  0  0  0  0  0  0  0  0  0
   13.9247   16.4661   21.3485 O   0  0  0  0  0  0  0  0  0  0  0  0
   12.4817   14.7896   20.7337 N   0  0  0  0  0  0  0  0  0  0  0  0
   11.9323   15.3255   19.5443 C   0  0  0  0  0  0  0  0  0  0  0  0
   11.2725   16.5540   19.5605 C   0  0  0  0  0  0  0  0  0  0  0  0
   10.7325   17.0249   18.3744 C   0  0  0  0  0  0  0  0  0  0  0  0
   10.1369   18.2262   18.3825 F   0  0  0  0  0  0  0  0  0  0  0  0
   10.7644   16.3067   17.1898 C   0  0  0  0  0  0  0  0  0  0  0  0
   11.4065   15.0802   17.2232 C   0  0  0  0  0  0  0  0  0  0  0  0
   11.4339   14.3564   16.0938 F   0  0  0  0  0  0  0  0  0  0  0  0
   11.9813   14.5665   18.3741 C   0  0  0  0  0  0  0  0  0  0  0  0
   12.1864   13.4371   21.1487 C   0  0  0  0  0  0  0  0  0  0  0  0
  1  2  1  0
  2  3  2  0
  3  4  1  0
  4  5  1  0
  5  6  1  0
  5  7  2  0
  4  8  2  0
  8  9  1  0
  9 10  2  0
 10 11  1  0
 11 12  1  0
 12 13  2  0
 14 12  1  1
 14 15  1  0
 15 16  1  0
 16 17  2  0
 16 18  1  0
 18 19  1  0
 19 20  2  0
 20 21  1  0
 21 22  1  0
 21 23  2  0
 23 24  1  0
 24 25  1  0
 24 26  2  0
 18 27  1  0
 10  2  1  0
 27 14  1  0
 26 19  1  0
M  END
>  <ref_pdb>  (108) 
x0554_0A

>  <ref_mols>  (108) 
x0310_0A,x0556_0A

>  <original SMILES>  (108) 
Cc1nc(C(N)=O)ccc1NC(=O)[C@@H]1CC(=O)N(c2cc(F)cc(F)c2)C1

>  <IC50 (nM)>  (108) 
1878.4515586741286

>  <CNNaffinity>  (108) 
5.7262

>  <rationale>  (108) 
-1

$$$$
PV_002185743508
     RDKit          3D

 24 26  0  0  0  0  0  0  0  0999 V2000
    9.8097    9.0778   23.0255 C   0  0  0  0  0  0  0  0  0  0  0  0
    9.0516   10.2265   23.6376 C   0  0  0  0  0  0  0  0  0  0  0  0
    7.9246    9.9440   24.3337 N   0  0  0  0  0  0  0  0  0  0  0  0
    7.2141   10.9359   24.9472 C   0  0  0  0  0  0  0  0  0  0  0  0
    5.9565   10.6834   25.7542 C   0  0  0  0  0  0  0  0  0  0  0  0
    5.3838    9.4582   26.0228 N   0  0  0  0  0  0  0  0  0  0  0  0
    5.3270   11.5852   26.2979 O   0  0  0  0  0  0  0  0  0  0  0  0
    7.6824   12.2600   24.8535 C   0  0  0  0  0  0  0  0  0  0  0  0
    8.8362   12.5698   24.1456 C   0  0  0  0  0  0  0  0  0  0  0  0
    9.5466   11.5531   23.5100 C   0  0  0  0  0  0  0  0  0  0  0  0
   10.7109   11.9159   22.7911 N   0  0  0  0  0  0  0  0  0  0  0  0
   11.4448   13.0684   23.0369 C   0  0  0  0  0  0  0  0  0  0  0  0
   11.2176   13.7259   24.0434 O   0  0  0  0  0  0  0  0  0  0  0  0
   12.6144   13.4550   22.1370 C   0  0  0  0  0  0  0  0  0  0  0  0
   12.1651   13.9460   20.7782 C   0  0  0  0  0  0  0  0  0  0  0  0
   12.4811   13.3858   19.5645 C   0  0  0  0  0  0  0  0  0  0  0  0
   11.7804   14.0664   18.5753 N   0  0  0  0  0  0  0  0  0  0  0  0
   11.0209   15.0708   19.1457 C   0  0  0  0  0  0  0  0  0  0  0  0
   11.2587   15.0563   20.5163 C   0  0  0  0  0  0  0  0  0  0  0  0
   10.6467   16.0063   21.3414 C   0  0  0  0  0  0  0  0  0  0  0  0
   11.0491   16.1096   23.2042 Br  0  0  0  0  0  0  0  0  0  0  0  0
    9.7202   16.8968   20.7793 C   0  0  0  0  0  0  0  0  0  0  0  0
    9.4496   16.8786   19.4036 C   0  0  0  0  0  0  0  0  0  0  0  0
   10.1276   15.9747   18.5756 C   0  0  0  0  0  0  0  0  0  0  0  0
  1  2  1  0
  2  3  2  0
  3  4  1  0
  4  5  1  0
  5  6  1  0
  5  7  2  0
  4  8  2  0
  8  9  1  0
  9 10  2  0
 10 11  1  0
 11 12  1  0
 12 13  2  0
 12 14  1  0
 14 15  1  0
 15 16  2  0
 16 17  1  0
 17 18  1  0
 18 19  2  0
 19 20  1  0
 20 21  1  0
 20 22  2  0
 22 23  1  0
 23 24  2  0
 10  2  1  0
 19 15  1  0
 24 18  1  0
M  END
>  <ref_pdb>  (109) 
x0554_0A

>  <ref_mols>  (109) 
x0310_0A,x0556_0A

>  <original SMILES>  (109) 
Cc1nc(C(N)=O)ccc1NC(=O)Cc1c[nH]c2cccc(Br)c12

>  <IC50 (nM)>  (109) 
1885.7321263171134

>  <CNNaffinity>  (109) 
5.72452

>  <rationale>  (109) 
-1

$$$$
PV_002238685750
     RDKit          3D

 25 26  0  0  0  0  0  0  0  0999 V2000
    9.5772    9.3810   23.0233 C   0  0  0  0  0  0  0  0  0  0  0  0
    8.8256   10.5523   23.6092 C   0  0  0  0  0  0  0  0  0  0  0  0
    7.7979   10.2589   24.3995 N   0  0  0  0  0  0  0  0  0  0  0  0
    7.1131   11.2465   24.9865 C   0  0  0  0  0  0  0  0  0  0  0  0
    5.9760   10.8991   25.9148 C   0  0  0  0  0  0  0  0  0  0  0  0
    5.7247    9.5766   26.0380 N   0  0  0  0  0  0  0  0  0  0  0  0
    5.3588   11.7679   26.5097 O   0  0  0  0  0  0  0  0  0  0  0  0
    7.4113   12.5867   24.8014 C   0  0  0  0  0  0  0  0  0  0  0  0
    8.4499   12.9165   23.9534 C   0  0  0  0  0  0  0  0  0  0  0  0
    9.1690   11.8947   23.3416 C   0  0  0  0  0  0  0  0  0  0  0  0
   10.2573   12.2211   22.5020 N   0  0  0  0  0  0  0  0  0  0  0  0
   10.2571   13.3398   21.6862 C   0  0  0  0  0  0  0  0  0  0  0  0
    9.2463   13.9764   21.4605 O   0  0  0  0  0  0  0  0  0  0  0  0
   11.6362   13.7550   21.1666 C   0  0  2  0  0  0  0  0  0  0  0  0
   12.4843   14.2503   22.3418 C   0  0  0  0  0  0  0  0  0  0  0  0
   12.6158   15.7599   22.4533 C   0  0  0  0  0  0  0  0  0  0  0  0
   12.3425   16.5909   21.2202 C   0  0  0  0  0  0  0  0  0  0  0  0
   11.1908   16.0454   20.4229 C   0  0  0  0  0  0  0  0  0  0  0  0
   11.5457   14.6828   20.0634 N   0  0  0  0  0  0  0  0  0  0  0  0
   11.2085   14.1437   18.8391 C   0  0  0  0  0  0  0  0  0  0  0  0
   10.6594   13.0593   18.7545 O   0  0  0  0  0  0  0  0  0  0  0  0
   11.5971   14.9635   17.6201 C   0  0  0  0  0  0  0  0  0  0  0  0
   10.4061   15.2241   16.6891 C   0  0  0  0  0  0  0  0  0  0  0  0
    9.2674   15.9591   17.3878 C   0  0  0  0  0  0  0  0  0  0  0  0
    9.8986   13.9293   16.0644 C   0  0  0  0  0  0  0  0  0  0  0  0
  1  2  1  0
  2  3  2  0
  3  4  1  0
  4  5  1  0
  5  6  1  0
  5  7  2  0
  4  8  2  0
  8  9  1  0
  9 10  2  0
 10 11  1  0
 11 12  1  0
 12 13  2  0
 14 12  1  1
 14 15  1  0
 15 16  1  0
 16 17  1  0
 17 18  1  0
 18 19  1  0
 19 20  1  0
 20 21  2  0
 20 22  1  0
 22 23  1  0
 23 24  1  0
 23 25  1  0
 10  2  1  0
 19 14  1  0
M  END
>  <ref_pdb>  (110) 
x0554_0A

>  <ref_mols>  (110) 
x0310_0A,x0556_0A

>  <original SMILES>  (110) 
Cc1nc(C(N)=O)ccc1NC(=O)[C@@H]1CCCCN1C(=O)CC(C)C

>  <IC50 (nM)>  (110) 
1891.9079405854807

>  <CNNaffinity>  (110) 
5.7231

>  <rationale>  (110) 
-1

$$$$
