ver_1.2
     RDKit          3D

 14 15  0  0  0  0  0  0  0  0999 V2000
    3.0286    1.5015   -0.1127 C   0  0  0  0  0  0  0  0  0  0  0  0
    2.2018    0.3256   -0.0699 N   0  0  0  0  0  0  0  0  0  0  0  0
    2.6332   -0.9379   -0.0628 C   0  0  0  0  0  0  0  0  0  0  0  0
    1.5895   -1.7853   -0.0188 N   0  0  0  0  0  0  0  0  0  0  0  0
    0.4586   -1.0283    0.0026 C   0  0  0  0  0  0  0  0  0  0  0  0
    0.8619    0.3129   -0.0303 C   0  0  0  0  0  0  0  0  0  0  0  0
   -0.1366    1.2477   -0.0155 C   0  0  0  0  0  0  0  0  0  0  0  0
    0.2041    2.4631   -0.0446 O   0  0  0  0  0  0  0  0  0  0  0  0
   -1.4590    0.9489    0.0281 N   0  0  0  0  0  0  0  0  0  0  0  0
   -1.8029   -0.3496    0.0585 C   0  0  0  0  0  0  0  0  0  0  0  0
   -3.0094   -0.6985    0.0995 O   0  0  0  0  0  0  0  0  0  0  0  0
   -0.8645   -1.3053    0.0459 N   0  0  0  0  0  0  0  0  0  0  0  0
   -1.2562   -2.7029    0.0793 C   0  0  0  0  0  0  0  0  0  0  0  0
   -2.4490    2.0080    0.0406 C   0  0  0  0  0  0  0  0  0  0  0  0
  1  2  1  0
  2  3  1  0
  3  4  2  0
  4  5  1  0
  5  6  2  0
  6  7  1  0
  7  8  2  0
  7  9  1  0
  9 10  1  0
 10 11  2  0
 10 12  1  0
 12 13  1  0
  9 14  1  0
  6  2  1  0
 12  5  1  0
M  END
>  <ref_url>  (1) 
https://github.com/jthorton/EV-A71-2A-elaborations/tree/main/iteration1/Matteo-elaborations/P2-Prime-vectors

>  <submitter_name>  (1) 
JTHorton/DJCole

>  <submitter_email>  (1) 
Josh.Horton@newcastle.ac.uk

>  <submitter_institution>  (1) 
Newcastle University (UK)

>  <generation_date>  (1) 
2023-11-24

>  <method>  (1) 
FEGrow-P2-Prime-Vector-Elaborations

>  <rationale>  (1) 
rationale

>  <IC50 (nM)>  (1) 
IC50 (nM)

>  <CNNaffinity>  (1) 
CNNaffinity

$$$$
Z1616628599
     RDKit          3D

 23 25  0  0  0  0  0  0  0  0999 V2000
    8.9235   15.5201   17.0787 C   0  0  0  0  0  0  0  0  0  0  0  0
    9.7745   16.2166   18.1468 C   0  0  0  0  0  0  0  0  0  0  0  0
   10.4290   15.1924   19.0259 C   0  0  0  0  0  0  0  0  0  0  0  0
   11.5609   14.6311   18.6660 N   0  0  0  0  0  0  0  0  0  0  0  0
   11.7765   13.8067   19.7170 N   0  0  0  0  0  0  0  0  0  0  0  0
   10.7823   13.9169   20.6437 C   0  0  0  0  0  0  0  0  0  0  0  0
   10.7195   13.2011   21.8077 N   0  0  0  0  0  0  0  0  0  0  0  0
    9.6080   13.2195   22.6209 C   0  0  0  0  0  0  0  0  0  0  0  0
    8.7338   14.0458   22.3900 O   0  0  0  0  0  0  0  0  0  0  0  0
    9.4334   12.1397   23.7288 C   0  0  0  0  0  0  0  0  0  0  0  0
   10.3870   12.4759   24.8756 C   0  0  0  0  0  0  0  0  0  0  0  0
    9.9241   12.8545   26.1469 C   0  0  0  0  0  0  0  0  0  0  0  0
   10.8169   13.1317   27.1887 C   0  0  0  0  0  0  0  0  0  0  0  0
   12.1931   13.0271   26.9707 C   0  0  0  0  0  0  0  0  0  0  0  0
   12.6776   12.6602   25.7121 C   0  0  0  0  0  0  0  0  0  0  0  0
   14.5612   12.5034   25.4075 Br  0  0  0  0  0  0  0  0  0  0  0  0
   11.7745   12.4045   24.6741 C   0  0  0  0  0  0  0  0  0  0  0  0
    9.7941   10.7220   23.1930 C   0  0  0  0  0  0  0  0  0  0  0  0
    9.5042    9.6475   24.2505 C   0  0  0  0  0  0  0  0  0  0  0  0
    8.1215    9.6787   24.6232 O   0  0  0  0  0  0  0  0  0  0  0  0
    7.7426   10.9225   25.2213 C   0  0  0  0  0  0  0  0  0  0  0  0
    7.9578   12.0700   24.2260 C   0  0  0  0  0  0  0  0  0  0  0  0
    9.9001   14.7606   20.2378 N   0  0  0  0  0  0  0  0  0  0  0  0
  1  2  1  0
  2  3  1  0
  3  4  2  0
  4  5  1  0
  5  6  1  0
  6  7  1  0
  7  8  1  0
  8  9  2  0
  8 10  1  0
 10 11  1  0
 11 12  2  0
 12 13  1  0
 13 14  2  0
 14 15  1  0
 15 16  1  0
 15 17  2  0
 10 18  1  0
 18 19  1  0
 19 20  1  0
 20 21  1  0
 21 22  1  0
  6 23  2  0
 23  3  1  0
 22 10  1  0
 17 11  1  0
M  END
>  <ref_pdb>  (1) 
x0554_0A

>  <ref_mols>  (1) 
x0310_0A,x0566_0A

>  <original SMILES>  (1) 
CCc1n[nH]c(NC(=O)C2(c3cccc(Br)c3)CCOCC2)n1

>  <rationale>  (1) 
-1

>  <IC50 (nM)>  (1) 
1233.3887988011081

>  <CNNaffinity>  (1) 
5.9089

$$$$
Z2027166094
     RDKit          3D

 23 25  0  0  0  0  0  0  0  0999 V2000
    9.4833   16.7709   18.4542 C   0  0  0  0  0  0  0  0  0  0  0  0
   10.0649   15.5460   19.0942 C   0  0  0  0  0  0  0  0  0  0  0  0
   11.0187   14.7332   18.5541 C   0  0  0  0  0  0  0  0  0  0  0  0
   11.7064   14.8138   17.2425 C   0  0  0  0  0  0  0  0  0  0  0  0
   11.2438   13.7588   19.5187 N   0  0  0  0  0  0  0  0  0  0  0  0
   10.4394   14.0676   20.5686 C   0  0  0  0  0  0  0  0  0  0  0  0
   10.4976   13.2215   21.6617 N   0  0  0  0  0  0  0  0  0  0  0  0
    9.6592   13.3620   22.7516 C   0  0  0  0  0  0  0  0  0  0  0  0
    9.0761   14.3961   22.9629 O   0  0  0  0  0  0  0  0  0  0  0  0
    9.5253   12.1412   23.7555 C   0  0  0  0  0  0  0  0  0  0  0  0
   10.4660   12.4871   24.9382 C   0  0  0  0  0  0  0  0  0  0  0  0
   10.0192   12.9535   26.1850 C   0  0  0  0  0  0  0  0  0  0  0  0
   10.9264   13.2040   27.2221 C   0  0  0  0  0  0  0  0  0  0  0  0
   12.2977   13.0182   27.0305 C   0  0  0  0  0  0  0  0  0  0  0  0
   12.7453   12.6113   25.7742 C   0  0  0  0  0  0  0  0  0  0  0  0
   14.4504   12.4100   25.4951 Cl  0  0  0  0  0  0  0  0  0  0  0  0
   11.8517   12.3775   24.7305 C   0  0  0  0  0  0  0  0  0  0  0  0
    9.8844   10.7244   23.1822 C   0  0  0  0  0  0  0  0  0  0  0  0
    9.5498    9.6240   24.2014 C   0  0  0  0  0  0  0  0  0  0  0  0
    8.1681    9.6114   24.5094 O   0  0  0  0  0  0  0  0  0  0  0  0
    7.7078   10.8286   25.0668 C   0  0  0  0  0  0  0  0  0  0  0  0
    8.0110   12.0311   24.1621 C   0  0  0  0  0  0  0  0  0  0  0  0
    9.6981   15.1022   20.3523 N   0  0  0  0  0  0  0  0  0  0  0  0
  1  2  1  0
  2  3  2  0
  3  4  1  0
  3  5  1  0
  5  6  1  0
  6  7  1  0
  7  8  1  0
  8  9  2  0
  8 10  1  0
 10 11  1  0
 11 12  2  0
 12 13  1  0
 13 14  2  0
 14 15  1  0
 15 16  1  0
 15 17  2  0
 10 18  1  0
 18 19  1  0
 19 20  1  0
 20 21  1  0
 21 22  1  0
  6 23  2  0
 23  2  1  0
 22 10  1  0
 17 11  1  0
M  END
>  <ref_pdb>  (2) 
x0554_0A

>  <ref_mols>  (2) 
x0310_0A,x0566_0A

>  <original SMILES>  (2) 
Cc1nc(NC(=O)C2(c3cccc(Cl)c3)CCOCC2)[nH]c1C

>  <rationale>  (2) 
-1

>  <IC50 (nM)>  (2) 
1292.6174068755347

>  <CNNaffinity>  (2) 
5.88853

$$$$
Z2408303900
     RDKit          3D

 22 24  0  0  0  0  0  0  0  0999 V2000
   10.6408   16.8173   18.5638 C   0  0  0  0  0  0  0  0  0  0  0  0
    9.8718   15.4986   18.6084 C   0  0  1  0  0  0  0  0  0  0  0  0
   10.7525   14.2535   18.3187 C   0  0  0  0  0  0  0  0  0  0  0  0
   11.1187   13.5869   19.5527 N   0  0  0  0  0  0  0  0  0  0  0  0
   10.3787   13.9241   20.5237 C   0  0  0  0  0  0  0  0  0  0  0  0
   10.5133   13.2398   21.7249 N   0  0  0  0  0  0  0  0  0  0  0  0
    9.5747   13.2873   22.7335 C   0  0  0  0  0  0  0  0  0  0  0  0
    8.8253   14.2409   22.8027 O   0  0  0  0  0  0  0  0  0  0  0  0
    9.4858   12.1138   23.7834 C   0  0  0  0  0  0  0  0  0  0  0  0
   10.4498   12.4782   24.9380 C   0  0  0  0  0  0  0  0  0  0  0  0
   10.0209   12.9548   26.1881 C   0  0  0  0  0  0  0  0  0  0  0  0
   10.9409   13.1965   27.2149 C   0  0  0  0  0  0  0  0  0  0  0  0
   12.3081   12.9961   27.0130 C   0  0  0  0  0  0  0  0  0  0  0  0
   12.7416   12.5913   25.7512 C   0  0  0  0  0  0  0  0  0  0  0  0
   14.4454   12.3732   25.4689 Cl  0  0  0  0  0  0  0  0  0  0  0  0
   11.8357   12.3534   24.7174 C   0  0  0  0  0  0  0  0  0  0  0  0
    9.8408   10.6999   23.2049 C   0  0  0  0  0  0  0  0  0  0  0  0
    9.5179    9.5948   24.2205 C   0  0  0  0  0  0  0  0  0  0  0  0
    8.1420    9.5792   24.5544 O   0  0  0  0  0  0  0  0  0  0  0  0
    7.6880   10.7903   25.1303 C   0  0  0  0  0  0  0  0  0  0  0  0
    7.9769   11.9945   24.2259 C   0  0  0  0  0  0  0  0  0  0  0  0
    9.1806   15.1945   20.2866 S   0  0  0  0  0  0  0  0  0  0  0  0
  2  1  1  1
  2  3  1  0
  3  4  1  0
  4  5  2  0
  5  6  1  0
  6  7  1  0
  7  8  2  0
  7  9  1  0
  9 10  1  0
 10 11  2  0
 11 12  1  0
 12 13  2  0
 13 14  1  0
 14 15  1  0
 14 16  2  0
  9 17  1  0
 17 18  1  0
 18 19  1  0
 19 20  1  0
 20 21  1  0
  5 22  1  0
 22  2  1  0
 21  9  1  0
 16 10  1  0
M  END
>  <ref_pdb>  (3) 
x0554_0A

>  <ref_mols>  (3) 
x0310_0A,x0566_0A

>  <original SMILES>  (3) 
C[C@H]1CN=C(NC(=O)C2(c3cccc(Cl)c3)CCOCC2)S1

>  <rationale>  (3) 
-1

>  <IC50 (nM)>  (3) 
1439.2956075085326

>  <CNNaffinity>  (3) 
5.84185

$$$$
Z2232558350
     RDKit          3D

 23 25  0  0  0  0  0  0  0  0999 V2000
   12.6848   13.3447   19.2922 O   0  0  0  0  0  0  0  0  0  0  0  0
   11.7060   14.0599   19.3677 C   0  0  0  0  0  0  0  0  0  0  0  0
   11.4122   15.1996   18.3883 C   0  0  0  0  0  0  0  0  0  0  0  0
   10.2253   14.9612   17.4640 C   0  0  0  0  0  0  0  0  0  0  0  0
   10.0938   15.7750   16.2083 C   0  0  0  0  0  0  0  0  0  0  0  0
   10.4796   14.3240   16.1341 C   0  0  0  0  0  0  0  0  0  0  0  0
   10.7258   13.9699   20.3280 N   0  0  0  0  0  0  0  0  0  0  0  0
   10.7791   13.2931   21.5794 N   0  0  0  0  0  0  0  0  0  0  0  0
    9.6747   13.3570   22.4321 C   0  0  0  0  0  0  0  0  0  0  0  0
    8.8481   14.2436   22.3130 O   0  0  0  0  0  0  0  0  0  0  0  0
    9.5686   12.2449   23.5478 C   0  0  0  0  0  0  0  0  0  0  0  0
   10.5153   12.6669   24.6996 C   0  0  0  0  0  0  0  0  0  0  0  0
   10.0600   13.2113   25.9106 C   0  0  0  0  0  0  0  0  0  0  0  0
   10.9558   13.4205   26.9621 C   0  0  0  0  0  0  0  0  0  0  0  0
   10.3580   14.0328   28.4764 Cl  0  0  0  0  0  0  0  0  0  0  0  0
   12.3189   13.1560   26.8285 C   0  0  0  0  0  0  0  0  0  0  0  0
   12.7925   12.7175   25.5892 C   0  0  0  0  0  0  0  0  0  0  0  0
   11.9057   12.5033   24.5320 C   0  0  0  0  0  0  0  0  0  0  0  0
    9.9488   10.7981   23.0461 C   0  0  0  0  0  0  0  0  0  0  0  0
    9.6299    9.7494   24.1168 C   0  0  0  0  0  0  0  0  0  0  0  0
    8.2476    9.7376   24.4234 O   0  0  0  0  0  0  0  0  0  0  0  0
    7.7765   10.9712   24.9343 C   0  0  0  0  0  0  0  0  0  0  0  0
    8.0610   12.1331   23.9741 C   0  0  0  0  0  0  0  0  0  0  0  0
  1  2  2  0
  2  3  1  0
  3  4  1  0
  4  5  1  0
  5  6  1  0
  2  7  1  0
  7  8  1  0
  8  9  1  0
  9 10  2  0
  9 11  1  0
 11 12  1  0
 12 13  2  0
 13 14  1  0
 14 15  1  0
 14 16  2  0
 16 17  1  0
 17 18  2  0
 11 19  1  0
 19 20  1  0
 20 21  1  0
 21 22  1  0
 22 23  1  0
  6  4  1  0
 23 11  1  0
 18 12  1  0
M  END
>  <ref_pdb>  (4) 
x0554_0A

>  <ref_mols>  (4) 
x0310_0A,x0566_0A

>  <original SMILES>  (4) 
O=C(CC1CC1)NNC(=O)C1(c2cccc(Cl)c2)CCOCC1

>  <rationale>  (4) 
-1

>  <IC50 (nM)>  (4) 
1544.57855222746

>  <CNNaffinity>  (4) 
5.81119

$$$$
Z4220229170
     RDKit          3D

 23 25  0  0  0  0  0  0  0  0999 V2000
   11.8624   15.4657   22.7404 C   0  0  0  0  0  0  0  0  0  0  0  0
   10.8926   14.7536   21.7923 C   0  0  2  0  0  0  0  0  0  0  0  0
   10.5573   13.4750   22.4401 N   0  0  0  0  0  0  0  0  0  0  0  0
    9.3461   13.2427   23.0744 C   0  0  0  0  0  0  0  0  0  0  0  0
    8.4306   14.0377   22.8939 O   0  0  0  0  0  0  0  0  0  0  0  0
    9.2302   12.0534   24.0570 C   0  0  0  0  0  0  0  0  0  0  0  0
   10.2423   12.3437   25.1620 C   0  0  0  0  0  0  0  0  0  0  0  0
    9.8474   12.7954   26.4290 C   0  0  0  0  0  0  0  0  0  0  0  0
   10.7982   13.1516   27.3914 C   0  0  0  0  0  0  0  0  0  0  0  0
   12.1615   13.0526   27.0959 C   0  0  0  0  0  0  0  0  0  0  0  0
   12.5775   12.6175   25.8363 C   0  0  0  0  0  0  0  0  0  0  0  0
   14.4435   12.5357   25.4181 Br  0  0  0  0  0  0  0  0  0  0  0  0
   11.6190   12.2683   24.8797 C   0  0  0  0  0  0  0  0  0  0  0  0
    9.5968   10.7276   23.3456 C   0  0  0  0  0  0  0  0  0  0  0  0
    9.4726    9.5532   24.3185 C   0  0  0  0  0  0  0  0  0  0  0  0
    8.1310    9.4648   24.8167 O   0  0  0  0  0  0  0  0  0  0  0  0
    7.6911   10.6378   25.5165 C   0  0  0  0  0  0  0  0  0  0  0  0
    7.7893   11.8758   24.6151 C   0  0  0  0  0  0  0  0  0  0  0  0
   11.4549   14.6229   20.3781 C   0  0  0  0  0  0  0  0  0  0  0  0
   12.4683   13.8708   20.0387 N   0  0  0  0  0  0  0  0  0  0  0  0
   12.5286   14.1148   18.7174 N   0  0  0  0  0  0  0  0  0  0  0  0
   11.6023   14.9893   18.2638 N   0  0  0  0  0  0  0  0  0  0  0  0
   10.9309   15.3182   19.2947 N   0  0  0  0  0  0  0  0  0  0  0  0
  2  1  1  1
  2  3  1  0
  3  4  1  0
  4  5  2  0
  4  6  1  0
  6  7  1  0
  7  8  2  0
  8  9  1  0
  9 10  2  0
 10 11  1  0
 11 12  1  0
 11 13  2  0
  6 14  1  0
 14 15  1  0
 15 16  1  0
 16 17  1  0
 17 18  1  0
  2 19  1  0
 19 20  2  0
 20 21  1  0
 21 22  1  0
 22 23  2  0
 18  6  1  0
 23 19  1  0
 13  7  1  0
M  END
>  <ref_pdb>  (5) 
x0554_0A

>  <ref_mols>  (5) 
x0310_0A,x0566_0A

>  <original SMILES>  (5) 
C[C@H](NC(=O)C1(c2cccc(Br)c2)CCOCC1)c1nn[nH]n1

>  <rationale>  (5) 
-1

>  <IC50 (nM)>  (5) 
1579.9378374397452

>  <CNNaffinity>  (5) 
5.80136

$$$$
Z1533711781
     RDKit          3D

 23 25  0  0  0  0  0  0  0  0999 V2000
    9.0391   14.3933   22.7675 O   0  0  0  0  0  0  0  0  0  0  0  0
    9.6433   13.3433   22.6149 C   0  0  0  0  0  0  0  0  0  0  0  0
   10.4454   13.1510   21.5326 N   0  0  0  0  0  0  0  0  0  0  0  0
   10.8587   14.2326   20.6548 C   0  0  1  0  0  0  0  0  0  0  0  0
   12.1306   14.9277   21.1994 C   0  0  0  0  0  0  0  0  0  0  0  0
   12.8267   15.7706   20.1541 C   0  0  0  0  0  0  0  0  0  0  0  0
   12.5342   15.7086   18.8475 C   0  0  0  0  0  0  0  0  0  0  0  0
   11.5020   14.7871   18.2560 C   0  0  0  0  0  0  0  0  0  0  0  0
   11.1288   13.6824   19.2461 C   0  0  0  0  0  0  0  0  0  0  0  0
    9.5123   12.1800   23.6834 C   0  0  0  0  0  0  0  0  0  0  0  0
   10.4645   12.5542   24.8447 C   0  0  0  0  0  0  0  0  0  0  0  0
   10.0489   12.9133   26.1374 C   0  0  0  0  0  0  0  0  0  0  0  0
   10.9575   13.0795   27.1899 C   0  0  0  0  0  0  0  0  0  0  0  0
   12.3157   12.9238   26.9325 C   0  0  0  0  0  0  0  0  0  0  0  0
   13.1975   13.0410   27.9358 F   0  0  0  0  0  0  0  0  0  0  0  0
   12.7962   12.6632   25.6547 C   0  0  0  0  0  0  0  0  0  0  0  0
   11.8541   12.5210   24.6448 C   0  0  0  0  0  0  0  0  0  0  0  0
   12.3326   12.3574   23.3861 F   0  0  0  0  0  0  0  0  0  0  0  0
    9.8636   10.7331   23.1746 C   0  0  0  0  0  0  0  0  0  0  0  0
    9.4740    9.6759   24.2195 C   0  0  0  0  0  0  0  0  0  0  0  0
    8.0909    9.7146   24.5149 O   0  0  0  0  0  0  0  0  0  0  0  0
    7.6717   10.9573   25.0451 C   0  0  0  0  0  0  0  0  0  0  0  0
    8.0029   12.1188   24.1010 C   0  0  0  0  0  0  0  0  0  0  0  0
  1  2  2  0
  2  3  1  0
  4  3  1  1
  4  5  1  0
  5  6  1  0
  6  7  2  0
  7  8  1  0
  8  9  1  0
  2 10  1  0
 10 11  1  0
 11 12  2  0
 12 13  1  0
 13 14  2  0
 14 15  1  0
 14 16  1  0
 16 17  2  0
 17 18  1  0
 10 19  1  0
 19 20  1  0
 20 21  1  0
 21 22  1  0
 22 23  1  0
  9  4  1  0
 23 10  1  0
 17 11  1  0
M  END
>  <ref_pdb>  (6) 
x0554_0A

>  <ref_mols>  (6) 
x0310_0A,x0566_0A

>  <original SMILES>  (6) 
O=C(N[C@H]1CC=CCC1)C1(c2ccc(F)cc2F)CCOCC1

>  <rationale>  (6) 
-1

>  <IC50 (nM)>  (6) 
1580.3380616672334

>  <CNNaffinity>  (6) 
5.80125

$$$$
Z4465140588
     RDKit          3D

 23 25  0  0  0  0  0  0  0  0999 V2000
   13.3437   13.3039   27.9895 C   0  0  0  0  0  0  0  0  0  0  0  0
   12.3399   13.0692   26.8845 C   0  0  0  0  0  0  0  0  0  0  0  0
   10.9649   13.2588   27.0838 C   0  0  0  0  0  0  0  0  0  0  0  0
   10.0396   13.0509   26.0534 C   0  0  0  0  0  0  0  0  0  0  0  0
   10.4523   12.6201   24.7782 C   0  0  0  0  0  0  0  0  0  0  0  0
    9.4886   12.2389   23.6199 C   0  0  0  0  0  0  0  0  0  0  0  0
    9.5507   13.3727   22.5139 C   0  0  0  0  0  0  0  0  0  0  0  0
    8.7773   14.3136   22.5282 O   0  0  0  0  0  0  0  0  0  0  0  0
   10.4930   13.2836   21.5147 N   0  0  0  0  0  0  0  0  0  0  0  0
   10.5443   14.0366   20.3541 C   0  0  0  0  0  0  0  0  0  0  0  0
   11.4994   13.8142   19.5392 N   0  0  0  0  0  0  0  0  0  0  0  0
   11.3468   14.6399   18.4214 O   0  0  0  0  0  0  0  0  0  0  0  0
   10.0490   15.2727   18.4345 C   0  0  0  0  0  0  0  0  0  0  0  0
    9.1359   14.5789   17.3981 C   0  0  0  0  0  0  0  0  0  0  0  0
   10.2838   16.7316   18.0577 C   0  0  0  0  0  0  0  0  0  0  0  0
    9.5920   15.0863   19.8978 C   0  0  0  0  0  0  0  0  0  0  0  0
    9.8564   10.8099   23.0674 C   0  0  0  0  0  0  0  0  0  0  0  0
    9.5878    9.7249   24.1180 C   0  0  0  0  0  0  0  0  0  0  0  0
    8.2156    9.6823   24.4627 O   0  0  0  0  0  0  0  0  0  0  0  0
    7.7460   10.8975   25.0170 C   0  0  0  0  0  0  0  0  0  0  0  0
    7.9967   12.1089   24.1032 C   0  0  0  0  0  0  0  0  0  0  0  0
   11.8364   12.4924   24.5695 C   0  0  0  0  0  0  0  0  0  0  0  0
   12.7559   12.6872   25.6008 C   0  0  0  0  0  0  0  0  0  0  0  0
  1  2  1  0
  2  3  2  0
  3  4  1  0
  4  5  2  0
  5  6  1  0
  6  7  1  0
  7  8  2  0
  7  9  1  0
  9 10  1  0
 10 11  2  0
 11 12  1  0
 12 13  1  0
 13 14  1  0
 13 15  1  0
 13 16  1  0
  6 17  1  0
 17 18  1  0
 18 19  1  0
 19 20  1  0
 20 21  1  0
  5 22  1  0
 22 23  2  0
 23  2  1  0
 21  6  1  0
 16 10  1  0
M  END
>  <ref_pdb>  (7) 
x0554_0A

>  <ref_mols>  (7) 
x0310_0A,x0566_0A

>  <original SMILES>  (7) 
Cc1ccc(C2(C(=O)NC3=NOC(C)(C)C3)CCOCC2)cc1

>  <rationale>  (7) 
-1

>  <IC50 (nM)>  (7) 
1582.3407040690508

>  <CNNaffinity>  (7) 
5.8007

$$$$
Z4465810215
     RDKit          3D

 23 25  0  0  0  0  0  0  0  0999 V2000
    9.0356   14.3941   22.7680 O   0  0  0  0  0  0  0  0  0  0  0  0
    9.6430   13.3456   22.6159 C   0  0  0  0  0  0  0  0  0  0  0  0
   10.4478   13.1538   21.5341 N   0  0  0  0  0  0  0  0  0  0  0  0
   10.8601   14.2357   20.6566 C   0  0  1  0  0  0  0  0  0  0  0  0
   12.1319   14.9311   21.2014 C   0  0  0  0  0  0  0  0  0  0  0  0
   12.8286   15.7727   20.1545 C   0  0  0  0  0  0  0  0  0  0  0  0
   12.5363   15.7083   18.8481 C   0  0  0  0  0  0  0  0  0  0  0  0
   11.5043   14.7869   18.2575 C   0  0  0  0  0  0  0  0  0  0  0  0
   11.1309   13.6841   19.2484 C   0  0  0  0  0  0  0  0  0  0  0  0
    9.5128   12.1820   23.6845 C   0  0  0  0  0  0  0  0  0  0  0  0
   10.4650   12.5548   24.8456 C   0  0  0  0  0  0  0  0  0  0  0  0
   10.0490   12.9138   26.1386 C   0  0  0  0  0  0  0  0  0  0  0  0
   10.9585   13.0800   27.1898 C   0  0  0  0  0  0  0  0  0  0  0  0
   12.3163   12.9243   26.9327 C   0  0  0  0  0  0  0  0  0  0  0  0
   13.1975   13.0408   27.9370 F   0  0  0  0  0  0  0  0  0  0  0  0
   12.7967   12.6647   25.6546 C   0  0  0  0  0  0  0  0  0  0  0  0
   11.8545   12.5216   24.6450 C   0  0  0  0  0  0  0  0  0  0  0  0
   12.3327   12.3590   23.3862 F   0  0  0  0  0  0  0  0  0  0  0  0
    9.8644   10.7355   23.1742 C   0  0  0  0  0  0  0  0  0  0  0  0
    9.4750    9.6773   24.2187 C   0  0  0  0  0  0  0  0  0  0  0  0
    8.0914    9.7152   24.5138 O   0  0  0  0  0  0  0  0  0  0  0  0
    7.6716   10.9578   25.0443 C   0  0  0  0  0  0  0  0  0  0  0  0
    8.0031   12.1195   24.1006 C   0  0  0  0  0  0  0  0  0  0  0  0
  1  2  2  0
  2  3  1  0
  4  3  1  1
  4  5  1  0
  5  6  1  0
  6  7  2  0
  7  8  1  0
  8  9  1  0
  2 10  1  0
 10 11  1  0
 11 12  2  0
 12 13  1  0
 13 14  2  0
 14 15  1  0
 14 16  1  0
 16 17  2  0
 17 18  1  0
 10 19  1  0
 19 20  1  0
 20 21  1  0
 21 22  1  0
 22 23  1  0
  9  4  1  0
 23 10  1  0
 17 11  1  0
M  END
>  <ref_pdb>  (8) 
x0554_0A

>  <ref_mols>  (8) 
x0310_0A,x0566_0A

>  <original SMILES>  (8) 
O=C(N[C@H]1CC=CCC1)C1(c2ccc(F)cc2F)CCOCC1

>  <rationale>  (8) 
-1

>  <IC50 (nM)>  (8) 
1585.9883761122826

>  <CNNaffinity>  (8) 
5.7997

$$$$
Z1401330811
     RDKit          3D

 23 25  0  0  0  0  0  0  0  0999 V2000
    8.9495   14.6680   22.5262 O   0  0  0  0  0  0  0  0  0  0  0  0
    9.5628   13.6536   22.2266 C   0  0  0  0  0  0  0  0  0  0  0  0
   10.1315   13.5449   20.9877 N   0  0  0  0  0  0  0  0  0  0  0  0
   10.1565   14.7239   20.1201 C   0  0  0  0  0  0  0  0  0  0  0  0
   10.8229   14.4574   18.7266 C   0  0  1  0  0  0  0  0  0  0  0  0
   10.1563   13.5977   17.8119 C   0  0  0  0  0  0  0  0  0  0  0  0
    9.5648   14.1629   16.5902 C   0  0  0  0  0  0  0  0  0  0  0  0
   10.4343   15.3948   16.2363 C   0  0  0  0  0  0  0  0  0  0  0  0
   10.9922   16.0859   17.8262 S   0  0  0  0  0  0  0  0  0  0  0  0
    9.6351   12.4700   23.2735 C   0  0  0  0  0  0  0  0  0  0  0  0
   10.5672   12.9435   24.4287 C   0  0  0  0  0  0  0  0  0  0  0  0
   10.0885   13.2247   25.7253 C   0  0  0  0  0  0  0  0  0  0  0  0
   10.9300   13.2733   26.8407 C   0  0  0  0  0  0  0  0  0  0  0  0
   12.3043   13.1215   26.6564 C   0  0  0  0  0  0  0  0  0  0  0  0
   13.3687   13.0638   28.0245 Cl  0  0  0  0  0  0  0  0  0  0  0  0
   12.8390   13.0342   25.3740 C   0  0  0  0  0  0  0  0  0  0  0  0
   11.9719   13.0020   24.2777 C   0  0  0  0  0  0  0  0  0  0  0  0
   12.7498   13.0958   22.7190 Cl  0  0  0  0  0  0  0  0  0  0  0  0
   10.1355   11.0503   22.8034 C   0  0  0  0  0  0  0  0  0  0  0  0
    9.9195   10.0147   23.9188 C   0  0  0  0  0  0  0  0  0  0  0  0
    8.5392    9.8648   24.2031 O   0  0  0  0  0  0  0  0  0  0  0  0
    7.9306   11.0554   24.6683 C   0  0  0  0  0  0  0  0  0  0  0  0
    8.1408   12.2364   23.7135 C   0  0  0  0  0  0  0  0  0  0  0  0
  1  2  2  0
  2  3  1  0
  3  4  1  0
  5  4  1  1
  5  6  1  0
  6  7  1  0
  7  8  1  0
  8  9  1  0
  2 10  1  0
 10 11  1  0
 11 12  2  0
 12 13  1  0
 13 14  2  0
 14 15  1  0
 14 16  1  0
 16 17  2  0
 17 18  1  0
 10 19  1  0
 19 20  1  0
 20 21  1  0
 21 22  1  0
 22 23  1  0
  9  5  1  0
 23 10  1  0
 17 11  1  0
M  END
>  <ref_pdb>  (9) 
x0554_0A

>  <ref_mols>  (9) 
x0310_0A,x0566_0A

>  <original SMILES>  (9) 
O=C(NC[C@H]1CCCS1)C1(c2ccc(Cl)cc2Cl)CCOCC1

>  <rationale>  (9) 
-1

>  <IC50 (nM)>  (9) 
1619.7947984187667

>  <CNNaffinity>  (9) 
5.79054

$$$$
Z855331078
     RDKit          3D

 23 24  0  0  0  0  0  0  0  0999 V2000
    9.3802   14.0542   16.2086 C   0  0  0  0  0  0  0  0  0  0  0  0
   10.4032   15.0387   16.7615 C   0  0  0  0  0  0  0  0  0  0  0  0
   10.1996   15.2343   18.2006 N   0  0  0  0  0  0  0  0  0  0  0  0
   10.3999   14.1585   19.0402 C   0  0  0  0  0  0  0  0  0  0  0  0
   10.6065   13.0190   18.6957 O   0  0  0  0  0  0  0  0  0  0  0  0
   10.3116   14.5573   20.3858 N   0  0  0  0  0  0  0  0  0  0  0  0
   10.1765   13.5335   21.3714 N   0  0  0  0  0  0  0  0  0  0  0  0
    9.5966   13.7084   22.5924 C   0  0  0  0  0  0  0  0  0  0  0  0
    9.0290   14.7423   22.9088 O   0  0  0  0  0  0  0  0  0  0  0  0
    9.6272   12.4662   23.5756 C   0  0  0  0  0  0  0  0  0  0  0  0
   10.5945   12.8395   24.7325 C   0  0  0  0  0  0  0  0  0  0  0  0
   10.1147   13.1367   26.0210 C   0  0  0  0  0  0  0  0  0  0  0  0
   10.9521   13.2386   27.1333 C   0  0  0  0  0  0  0  0  0  0  0  0
   12.3262   13.0754   26.9623 C   0  0  0  0  0  0  0  0  0  0  0  0
   13.3900   13.0828   28.3319 Cl  0  0  0  0  0  0  0  0  0  0  0  0
   12.8675   12.9219   25.6884 C   0  0  0  0  0  0  0  0  0  0  0  0
   12.0044   12.8593   24.5887 C   0  0  0  0  0  0  0  0  0  0  0  0
   12.8037   12.9138   23.0377 Cl  0  0  0  0  0  0  0  0  0  0  0  0
   10.0566   11.0668   23.0015 C   0  0  0  0  0  0  0  0  0  0  0  0
    9.8030    9.9593   24.0305 C   0  0  0  0  0  0  0  0  0  0  0  0
    8.4185    9.8438   24.3055 O   0  0  0  0  0  0  0  0  0  0  0  0
    7.8518   11.0181   24.8565 C   0  0  0  0  0  0  0  0  0  0  0  0
    8.1191   12.2602   23.9969 C   0  0  0  0  0  0  0  0  0  0  0  0
  1  2  1  0
  2  3  1  0
  3  4  1  0
  4  5  2  0
  4  6  1  0
  6  7  1  0
  7  8  1  0
  8  9  2  0
  8 10  1  0
 10 11  1  0
 11 12  2  0
 12 13  1  0
 13 14  2  0
 14 15  1  0
 14 16  1  0
 16 17  2  0
 17 18  1  0
 10 19  1  0
 19 20  1  0
 20 21  1  0
 21 22  1  0
 22 23  1  0
 23 10  1  0
 17 11  1  0
M  END
>  <ref_pdb>  (10) 
x0554_0A

>  <ref_mols>  (10) 
x0310_0A,x0566_0A

>  <original SMILES>  (10) 
CCNC(=O)NNC(=O)C1(c2ccc(Cl)cc2Cl)CCOCC1

>  <rationale>  (10) 
-1

>  <IC50 (nM)>  (10) 
1621.511376412684

>  <CNNaffinity>  (10) 
5.79008

$$$$
Z1435986965
     RDKit          3D

 23 25  0  0  0  0  0  0  0  0999 V2000
   10.5461   17.6005   18.2608 C   0  0  0  0  0  0  0  0  0  0  0  0
   10.0567   16.1598   17.9928 C   0  0  0  0  0  0  0  0  0  0  0  0
   10.5648   15.1260   18.9550 C   0  0  0  0  0  0  0  0  0  0  0  0
   11.7042   14.5071   18.7371 N   0  0  0  0  0  0  0  0  0  0  0  0
   11.7954   13.7145   19.8432 N   0  0  0  0  0  0  0  0  0  0  0  0
   10.7170   13.8852   20.6213 C   0  0  0  0  0  0  0  0  0  0  0  0
   10.5967   13.1291   21.7673 N   0  0  0  0  0  0  0  0  0  0  0  0
    9.6195   13.3140   22.7241 C   0  0  0  0  0  0  0  0  0  0  0  0
    8.9630   14.3240   22.7855 O   0  0  0  0  0  0  0  0  0  0  0  0
    9.4787   12.1363   23.7679 C   0  0  0  0  0  0  0  0  0  0  0  0
   10.4417   12.4961   24.9305 C   0  0  0  0  0  0  0  0  0  0  0  0
   10.0088   12.9788   26.1771 C   0  0  0  0  0  0  0  0  0  0  0  0
   10.9243   13.2149   27.2121 C   0  0  0  0  0  0  0  0  0  0  0  0
   12.2930   12.9997   27.0203 C   0  0  0  0  0  0  0  0  0  0  0  0
   12.7197   12.5962   25.7585 C   0  0  0  0  0  0  0  0  0  0  0  0
   14.0348   12.4135   25.5432 F   0  0  0  0  0  0  0  0  0  0  0  0
   11.8295   12.3648   24.7146 C   0  0  0  0  0  0  0  0  0  0  0  0
    9.8429   10.7101   23.2073 C   0  0  0  0  0  0  0  0  0  0  0  0
    9.5154    9.6190   24.2326 C   0  0  0  0  0  0  0  0  0  0  0  0
    8.1350    9.6056   24.5453 O   0  0  0  0  0  0  0  0  0  0  0  0
    7.6674   10.8234   25.0965 C   0  0  0  0  0  0  0  0  0  0  0  0
    7.9691   12.0225   24.1832 C   0  0  0  0  0  0  0  0  0  0  0  0
    9.9082   14.7647   20.1043 N   0  0  0  0  0  0  0  0  0  0  0  0
  1  2  1  0
  2  3  1  0
  3  4  2  0
  4  5  1  0
  5  6  1  0
  6  7  1  0
  7  8  1  0
  8  9  2  0
  8 10  1  0
 10 11  1  0
 11 12  2  0
 12 13  1  0
 13 14  2  0
 14 15  1  0
 15 16  1  0
 15 17  2  0
 10 18  1  0
 18 19  1  0
 19 20  1  0
 20 21  1  0
 21 22  1  0
  6 23  2  0
 23  3  1  0
 22 10  1  0
 17 11  1  0
M  END
>  <ref_pdb>  (11) 
x0554_0A

>  <ref_mols>  (11) 
x0310_0A,x0566_0A

>  <original SMILES>  (11) 
CCc1n[nH]c(NC(=O)C2(c3cccc(F)c3)CCOCC2)n1

>  <rationale>  (11) 
-1

>  <IC50 (nM)>  (11) 
1623.2297735506108

>  <CNNaffinity>  (11) 
5.78962

$$$$
Z3583699977
     RDKit          3D

 23 25  0  0  0  0  0  0  0  0999 V2000
    8.6554   14.2019   22.5016 O   0  0  0  0  0  0  0  0  0  0  0  0
    9.5208   13.3355   22.5511 C   0  0  0  0  0  0  0  0  0  0  0  0
   10.5192   13.4187   21.5873 N   0  0  0  0  0  0  0  0  0  0  0  0
   10.5545   14.4810   20.5838 C   0  0  0  0  0  0  0  0  0  0  0  0
   11.4902   14.0465   19.4676 C   0  0  0  0  0  0  0  0  0  0  0  0
   11.5387   15.0339   18.3457 C   0  0  0  0  0  0  0  0  0  0  0  0
   10.6101   15.2183   17.3516 C   0  0  0  0  0  0  0  0  0  0  0  0
    8.9407   14.3370   17.0921 Br  0  0  0  0  0  0  0  0  0  0  0  0
   11.1450   16.1809   16.5309 N   0  0  0  0  0  0  0  0  0  0  0  0
   12.3853   16.5245   17.0362 C   0  0  0  0  0  0  0  0  0  0  0  0
   12.6359   15.8486   18.1284 N   0  0  0  0  0  0  0  0  0  0  0  0
    9.4430   12.2087   23.6307 C   0  0  0  0  0  0  0  0  0  0  0  0
   10.4055   12.5556   24.7660 C   0  0  0  0  0  0  0  0  0  0  0  0
    9.9400   12.9028   26.0460 C   0  0  0  0  0  0  0  0  0  0  0  0
   10.8340   13.1242   27.0988 C   0  0  0  0  0  0  0  0  0  0  0  0
   12.2102   13.0177   26.8827 C   0  0  0  0  0  0  0  0  0  0  0  0
   12.6903   12.7125   25.6067 C   0  0  0  0  0  0  0  0  0  0  0  0
   11.7931   12.4955   24.5537 C   0  0  0  0  0  0  0  0  0  0  0  0
    9.8501   10.8171   23.0767 C   0  0  0  0  0  0  0  0  0  0  0  0
    9.6502    9.7168   24.1300 C   0  0  0  0  0  0  0  0  0  0  0  0
    8.2827    9.6740   24.5602 O   0  0  0  0  0  0  0  0  0  0  0  0
    7.8453   10.8980   25.1635 C   0  0  0  0  0  0  0  0  0  0  0  0
    7.9812   12.0519   24.1605 C   0  0  0  0  0  0  0  0  0  0  0  0
  1  2  2  0
  2  3  1  0
  3  4  1  0
  4  5  1  0
  5  6  1  0
  6  7  2  0
  7  8  1  0
  7  9  1  0
  9 10  1  0
 10 11  2  0
  2 12  1  0
 12 13  1  0
 13 14  2  0
 14 15  1  0
 15 16  2  0
 16 17  1  0
 17 18  2  0
 12 19  1  0
 19 20  1  0
 20 21  1  0
 21 22  1  0
 22 23  1  0
 11  6  1  0
 23 12  1  0
 18 13  1  0
M  END
>  <ref_pdb>  (12) 
x0554_0A

>  <ref_mols>  (12) 
x0310_0A,x0566_0A

>  <original SMILES>  (12) 
O=C(NCCc1nc[nH]c1Br)C1(c2ccccc2)CCOCC1

>  <rationale>  (12) 
-1

>  <IC50 (nM)>  (12) 
1630.3092776176072

>  <CNNaffinity>  (12) 
5.78773

$$$$
Z3831533334
     RDKit          3D

 23 25  0  0  0  0  0  0  0  0999 V2000
    8.9370   14.4960   22.9226 O   0  0  0  0  0  0  0  0  0  0  0  0
    9.5492   13.4777   22.6523 C   0  0  0  0  0  0  0  0  0  0  0  0
   10.2555   13.3096   21.4841 N   0  0  0  0  0  0  0  0  0  0  0  0
   10.2667   14.2528   20.4432 N   0  0  0  0  0  0  0  0  0  0  0  0
   10.7814   13.7473   19.1701 C   0  0  0  0  0  0  0  0  0  0  0  0
   10.3821   14.7330   18.0712 C   0  0  0  0  0  0  0  0  0  0  0  0
    9.9227   14.1028   16.7289 C   0  0  0  0  0  0  0  0  0  0  0  0
   11.1346   14.7233   16.0073 C   0  0  0  0  0  0  0  0  0  0  0  0
   11.5085   15.4889   17.3001 C   0  0  0  0  0  0  0  0  0  0  0  0
    9.5550   12.2705   23.6949 C   0  0  0  0  0  0  0  0  0  0  0  0
   10.5297   12.6618   24.8472 C   0  0  0  0  0  0  0  0  0  0  0  0
   10.0711   12.9559   26.1478 C   0  0  0  0  0  0  0  0  0  0  0  0
   10.9287   13.0687   27.2461 C   0  0  0  0  0  0  0  0  0  0  0  0
   12.3031   12.9388   27.0488 C   0  0  0  0  0  0  0  0  0  0  0  0
   13.4016   12.9961   28.3913 Cl  0  0  0  0  0  0  0  0  0  0  0  0
   12.8181   12.7953   25.7646 C   0  0  0  0  0  0  0  0  0  0  0  0
   11.9353   12.7098   24.6826 C   0  0  0  0  0  0  0  0  0  0  0  0
   12.7287   12.7716   23.1301 Cl  0  0  0  0  0  0  0  0  0  0  0  0
    9.9503   10.8505   23.1453 C   0  0  0  0  0  0  0  0  0  0  0  0
    9.6139    9.7396   24.1520 C   0  0  0  0  0  0  0  0  0  0  0  0
    8.2296    9.7026   24.4455 O   0  0  0  0  0  0  0  0  0  0  0  0
    7.7675   10.9008   25.0380 C   0  0  0  0  0  0  0  0  0  0  0  0
    8.0494   12.1206   24.1531 C   0  0  0  0  0  0  0  0  0  0  0  0
  1  2  2  0
  2  3  1  0
  3  4  1  0
  4  5  1  0
  5  6  1  0
  6  7  1  0
  7  8  1  0
  8  9  1  0
  2 10  1  0
 10 11  1  0
 11 12  2  0
 12 13  1  0
 13 14  2  0
 14 15  1  0
 14 16  1  0
 16 17  2  0
 17 18  1  0
 10 19  1  0
 19 20  1  0
 20 21  1  0
 21 22  1  0
 22 23  1  0
  9  6  1  0
 23 10  1  0
 17 11  1  0
M  END
>  <ref_pdb>  (13) 
x0554_0A

>  <ref_mols>  (13) 
x0310_0A,x0566_0A

>  <original SMILES>  (13) 
O=C(NNCC1CCC1)C1(c2ccc(Cl)cc2Cl)CCOCC1

>  <rationale>  (13) 
-1

>  <IC50 (nM)>  (13) 
1665.5589173587105

>  <CNNaffinity>  (13) 
5.77844

$$$$
Z4201009730
     RDKit          3D

 23 25  0  0  0  0  0  0  0  0999 V2000
    9.0563   14.3685   22.7253 O   0  0  0  0  0  0  0  0  0  0  0  0
    9.6618   13.3138   22.6079 C   0  0  0  0  0  0  0  0  0  0  0  0
   10.4709   13.0695   21.5391 N   0  0  0  0  0  0  0  0  0  0  0  0
   10.9663   14.1175   20.6772 C   0  0  2  0  0  0  0  0  0  0  0  0
   11.2155   13.5989   19.2486 C   0  0  0  0  0  0  0  0  0  0  0  0
   11.7948   14.6419   18.3427 C   0  0  0  0  0  0  0  0  0  0  0  0
   12.5280   15.6383   18.8340 C   0  0  0  0  0  0  0  0  0  0  0  0
   12.6824   15.9032   20.3242 C   0  0  0  0  0  0  0  0  0  0  0  0
   12.2647   14.7272   21.2221 C   0  0  0  0  0  0  0  0  0  0  0  0
    9.5226   12.1789   23.6922 C   0  0  0  0  0  0  0  0  0  0  0  0
   10.4748   12.5555   24.8569 C   0  0  0  0  0  0  0  0  0  0  0  0
   10.0619   12.9174   26.1499 C   0  0  0  0  0  0  0  0  0  0  0  0
   10.9732   13.0863   27.1981 C   0  0  0  0  0  0  0  0  0  0  0  0
   12.3313   12.9368   26.9420 C   0  0  0  0  0  0  0  0  0  0  0  0
   13.2092   13.0658   27.9469 F   0  0  0  0  0  0  0  0  0  0  0  0
   12.8111   12.6807   25.6632 C   0  0  0  0  0  0  0  0  0  0  0  0
   11.8658   12.5267   24.6573 C   0  0  0  0  0  0  0  0  0  0  0  0
   12.3427   12.3764   23.3970 F   0  0  0  0  0  0  0  0  0  0  0  0
    9.8744   10.7339   23.1780 C   0  0  0  0  0  0  0  0  0  0  0  0
    9.4835    9.6779   24.2154 C   0  0  0  0  0  0  0  0  0  0  0  0
    8.0967    9.7153   24.4980 O   0  0  0  0  0  0  0  0  0  0  0  0
    7.6682   10.9574   25.0262 C   0  0  0  0  0  0  0  0  0  0  0  0
    8.0085   12.1238   24.0933 C   0  0  0  0  0  0  0  0  0  0  0  0
  1  2  2  0
  2  3  1  0
  4  3  1  1
  4  5  1  0
  5  6  1  0
  6  7  2  0
  7  8  1  0
  8  9  1  0
  2 10  1  0
 10 11  1  0
 11 12  2  0
 12 13  1  0
 13 14  2  0
 14 15  1  0
 14 16  1  0
 16 17  2  0
 17 18  1  0
 10 19  1  0
 19 20  1  0
 20 21  1  0
 21 22  1  0
 22 23  1  0
  9  4  1  0
 23 10  1  0
 17 11  1  0
M  END
>  <ref_pdb>  (14) 
x0554_0A

>  <ref_mols>  (14) 
x0310_0A,x0566_0A

>  <original SMILES>  (14) 
O=C(N[C@@H]1CC=CCC1)C1(c2ccc(F)cc2F)CCOCC1

>  <rationale>  (14) 
-1

>  <IC50 (nM)>  (14) 
1666.0959166669684

>  <CNNaffinity>  (14) 
5.7783

$$$$
Z4330875630
     RDKit          3D

 23 25  0  0  0  0  0  0  0  0999 V2000
    8.7992   14.0470   22.2127 O   0  0  0  0  0  0  0  0  0  0  0  0
    9.6850   13.2699   22.5461 C   0  0  0  0  0  0  0  0  0  0  0  0
   10.8744   13.2624   21.8515 N   0  0  0  0  0  0  0  0  0  0  0  0
   11.0788   13.9469   20.6684 C   0  0  0  0  0  0  0  0  0  0  0  0
   10.0990   14.7459   20.2406 N   0  0  0  0  0  0  0  0  0  0  0  0
   10.3327   15.3602   19.0657 C   0  0  0  0  0  0  0  0  0  0  0  0
    9.3862   16.1771   18.5656 F   0  0  0  0  0  0  0  0  0  0  0  0
   11.5325   15.1790   18.3352 C   0  0  0  0  0  0  0  0  0  0  0  0
   12.5298   14.3792   18.7615 N   0  0  0  0  0  0  0  0  0  0  0  0
   12.2823   13.7601   19.9383 C   0  0  0  0  0  0  0  0  0  0  0  0
    9.4789   12.1904   23.6441 C   0  0  0  0  0  0  0  0  0  0  0  0
   10.4222   12.5151   24.7985 C   0  0  0  0  0  0  0  0  0  0  0  0
    9.9384   12.8926   26.0601 C   0  0  0  0  0  0  0  0  0  0  0  0
   10.8151   13.1368   27.1199 C   0  0  0  0  0  0  0  0  0  0  0  0
   12.1927   13.0102   26.9246 C   0  0  0  0  0  0  0  0  0  0  0  0
   12.6983   12.6620   25.6694 C   0  0  0  0  0  0  0  0  0  0  0  0
   14.5838   12.4787   25.4046 Br  0  0  0  0  0  0  0  0  0  0  0  0
   11.8120   12.4334   24.6118 C   0  0  0  0  0  0  0  0  0  0  0  0
    9.8338   10.7642   23.1222 C   0  0  0  0  0  0  0  0  0  0  0  0
    9.5345    9.7065   24.1907 C   0  0  0  0  0  0  0  0  0  0  0  0
    8.1466    9.7542   24.5447 O   0  0  0  0  0  0  0  0  0  0  0  0
    7.7715   11.0108   25.1221 C   0  0  0  0  0  0  0  0  0  0  0  0
    8.0001   12.1445   24.1164 C   0  0  0  0  0  0  0  0  0  0  0  0
  1  2  2  0
  2  3  1  0
  3  4  1  0
  4  5  2  0
  5  6  1  0
  6  7  1  0
  6  8  2  0
  8  9  1  0
  9 10  2  0
  2 11  1  0
 11 12  1  0
 12 13  2  0
 13 14  1  0
 14 15  2  0
 15 16  1  0
 16 17  1  0
 16 18  2  0
 11 19  1  0
 19 20  1  0
 20 21  1  0
 21 22  1  0
 22 23  1  0
 10  4  1  0
 23 11  1  0
 18 12  1  0
M  END
>  <ref_pdb>  (15) 
x0554_0A

>  <ref_mols>  (15) 
x0310_0A,x0566_0A

>  <original SMILES>  (15) 
O=C(Nc1cncc(F)n1)C1(c2cccc(Br)c2)CCOCC1

>  <rationale>  (15) 
-1

>  <IC50 (nM)>  (15) 
1697.4226773572007

>  <CNNaffinity>  (15) 
5.77021

$$$$
Z1175052394
     RDKit          3D

 22 23  0  0  0  0  0  0  0  0999 V2000
   10.6247   15.2701   17.9984 C   0  0  0  0  0  0  0  0  0  0  0  0
   10.7452   14.1538   19.0478 C   0  0  1  0  0  0  0  0  0  0  0  0
   12.0627   13.5198   19.1246 C   0  0  0  0  0  0  0  0  0  0  0  0
   12.9789   12.8209   19.2055 N   0  0  0  0  0  0  0  0  0  0  0  0
   10.2827   14.5792   20.4523 C   0  0  0  0  0  0  0  0  0  0  0  0
   10.1573   13.4344   21.3462 N   0  0  0  0  0  0  0  0  0  0  0  0
    9.5891   13.5875   22.5815 C   0  0  0  0  0  0  0  0  0  0  0  0
    9.0282   14.6300   22.8818 O   0  0  0  0  0  0  0  0  0  0  0  0
    9.6034   12.3856   23.6087 C   0  0  0  0  0  0  0  0  0  0  0  0
   10.5601   12.7741   24.7718 C   0  0  0  0  0  0  0  0  0  0  0  0
   10.0975   13.0351   26.0795 C   0  0  0  0  0  0  0  0  0  0  0  0
   10.9541   13.1517   27.1765 C   0  0  0  0  0  0  0  0  0  0  0  0
   12.3290   13.0287   26.9787 C   0  0  0  0  0  0  0  0  0  0  0  0
   13.4134   13.0665   28.3341 Cl  0  0  0  0  0  0  0  0  0  0  0  0
   12.8456   12.8908   25.6929 C   0  0  0  0  0  0  0  0  0  0  0  0
   11.9639   12.8298   24.6073 C   0  0  0  0  0  0  0  0  0  0  0  0
   12.7422   12.9013   23.0437 Cl  0  0  0  0  0  0  0  0  0  0  0  0
   10.0281   10.9875   23.0342 C   0  0  0  0  0  0  0  0  0  0  0  0
    9.7593    9.8623   24.0405 C   0  0  0  0  0  0  0  0  0  0  0  0
    8.3748    9.7726   24.3286 O   0  0  0  0  0  0  0  0  0  0  0  0
    7.8566   10.9457   24.9291 C   0  0  0  0  0  0  0  0  0  0  0  0
    8.1059   12.1925   24.0669 C   0  0  0  0  0  0  0  0  0  0  0  0
  2  1  1  6
  2  3  1  0
  3  4  3  0
  2  5  1  0
  5  6  1  0
  6  7  1  0
  7  8  2  0
  7  9  1  0
  9 10  1  0
 10 11  2  0
 11 12  1  0
 12 13  2  0
 13 14  1  0
 13 15  1  0
 15 16  2  0
 16 17  1  0
  9 18  1  0
 18 19  1  0
 19 20  1  0
 20 21  1  0
 21 22  1  0
 22  9  1  0
 16 10  1  0
M  END
>  <ref_pdb>  (16) 
x0554_0A

>  <ref_mols>  (16) 
x0310_0A,x0566_0A

>  <original SMILES>  (16) 
C[C@@H](C#N)CNC(=O)C1(c2ccc(Cl)cc2Cl)CCOCC1

>  <rationale>  (16) 
-1

>  <IC50 (nM)>  (16) 
1732.4471703178492

>  <CNNaffinity>  (16) 
5.76134

$$$$
Z816150488
     RDKit          3D

 22 23  0  0  0  0  0  0  0  0999 V2000
   10.1369   14.7987   17.7208 C   0  0  0  0  0  0  0  0  0  0  0  0
   11.5102   14.8884   18.3986 C   0  0  0  0  0  0  0  0  0  0  0  0
   11.7987   16.3140   18.8970 C   0  0  0  0  0  0  0  0  0  0  0  0
   11.7339   13.8827   19.5393 C   0  0  0  0  0  0  0  0  0  0  0  0
   12.7555   13.2303   19.6259 O   0  0  0  0  0  0  0  0  0  0  0  0
   10.6866   13.8399   20.4311 N   0  0  0  0  0  0  0  0  0  0  0  0
   10.7598   13.2368   21.7215 N   0  0  0  0  0  0  0  0  0  0  0  0
    9.6427   13.2697   22.5525 C   0  0  0  0  0  0  0  0  0  0  0  0
    8.7897   14.1299   22.4115 O   0  0  0  0  0  0  0  0  0  0  0  0
    9.5451   12.1493   23.6765 C   0  0  0  0  0  0  0  0  0  0  0  0
   10.5009   12.5314   24.8357 C   0  0  0  0  0  0  0  0  0  0  0  0
   10.0657   12.9913   26.0888 C   0  0  0  0  0  0  0  0  0  0  0  0
   10.9626   13.1928   27.1431 C   0  0  0  0  0  0  0  0  0  0  0  0
   12.3251   12.9664   26.9404 C   0  0  0  0  0  0  0  0  0  0  0  0
   13.4405   13.1593   28.2593 Cl  0  0  0  0  0  0  0  0  0  0  0  0
   12.7996   12.5804   25.6860 C   0  0  0  0  0  0  0  0  0  0  0  0
   11.8897   12.3957   24.6430 C   0  0  0  0  0  0  0  0  0  0  0  0
    9.8999   10.6952   23.1655 C   0  0  0  0  0  0  0  0  0  0  0  0
    9.5350    9.6433   24.2233 C   0  0  0  0  0  0  0  0  0  0  0  0
    8.1494    9.6553   24.5128 O   0  0  0  0  0  0  0  0  0  0  0  0
    7.7031   10.8933   25.0294 C   0  0  0  0  0  0  0  0  0  0  0  0
    8.0369   12.0636   24.1016 C   0  0  0  0  0  0  0  0  0  0  0  0
  1  2  1  0
  2  3  1  0
  2  4  1  0
  4  5  2  0
  4  6  1  0
  6  7  1  0
  7  8  1  0
  8  9  2  0
  8 10  1  0
 10 11  1  0
 11 12  2  0
 12 13  1  0
 13 14  2  0
 14 15  1  0
 14 16  1  0
 16 17  2  0
 10 18  1  0
 18 19  1  0
 19 20  1  0
 20 21  1  0
 21 22  1  0
 22 10  1  0
 17 11  1  0
M  END
>  <ref_pdb>  (17) 
x0554_0A

>  <ref_mols>  (17) 
x0310_0A,x0566_0A

>  <original SMILES>  (17) 
CC(C)C(=O)NNC(=O)C1(c2ccc(Cl)cc2)CCOCC1

>  <rationale>  (17) 
-1

>  <IC50 (nM)>  (17) 
1770.6388950731055

>  <CNNaffinity>  (17) 
5.75187

$$$$
Z2408304602
     RDKit          3D

 22 24  0  0  0  0  0  0  0  0999 V2000
   11.3607   14.9591   17.0036 C   0  0  0  0  0  0  0  0  0  0  0  0
   10.7584   14.3134   18.2415 C   0  0  2  0  0  0  0  0  0  0  0  0
    9.7638   15.2171   18.9547 C   0  0  0  0  0  0  0  0  0  0  0  0
    9.6079   14.6540   20.2972 N   0  0  0  0  0  0  0  0  0  0  0  0
   10.6849   14.0080   20.6480 C   0  0  0  0  0  0  0  0  0  0  0  0
   10.7227   13.3086   21.8285 N   0  0  0  0  0  0  0  0  0  0  0  0
    9.6052   13.2333   22.6336 C   0  0  0  0  0  0  0  0  0  0  0  0
    8.6993   14.0337   22.4257 O   0  0  0  0  0  0  0  0  0  0  0  0
    9.4514   12.1314   23.7201 C   0  0  0  0  0  0  0  0  0  0  0  0
   10.4092   12.4670   24.8578 C   0  0  0  0  0  0  0  0  0  0  0  0
    9.9439   12.8586   26.1230 C   0  0  0  0  0  0  0  0  0  0  0  0
   10.8344   13.1270   27.1657 C   0  0  0  0  0  0  0  0  0  0  0  0
   12.2112   13.0062   26.9545 C   0  0  0  0  0  0  0  0  0  0  0  0
   12.6981   12.6369   25.6976 C   0  0  0  0  0  0  0  0  0  0  0  0
   14.5833   12.4613   25.4135 Br  0  0  0  0  0  0  0  0  0  0  0  0
   11.7981   12.3863   24.6562 C   0  0  0  0  0  0  0  0  0  0  0  0
    9.8143   10.7210   23.1772 C   0  0  0  0  0  0  0  0  0  0  0  0
    9.5224    9.6375   24.2267 C   0  0  0  0  0  0  0  0  0  0  0  0
    8.1385    9.6654   24.5964 O   0  0  0  0  0  0  0  0  0  0  0  0
    7.7549   10.9039   25.2017 C   0  0  0  0  0  0  0  0  0  0  0  0
    7.9741   12.0556   24.2149 C   0  0  0  0  0  0  0  0  0  0  0  0
   12.0152   13.9379   19.5125 S   0  0  0  0  0  0  0  0  0  0  0  0
  2  1  1  6
  2  3  1  0
  3  4  1  0
  4  5  2  0
  5  6  1  0
  6  7  1  0
  7  8  2  0
  7  9  1  0
  9 10  1  0
 10 11  2  0
 11 12  1  0
 12 13  2  0
 13 14  1  0
 14 15  1  0
 14 16  2  0
  9 17  1  0
 17 18  1  0
 18 19  1  0
 19 20  1  0
 20 21  1  0
  5 22  1  0
 22  2  1  0
 21  9  1  0
 16 10  1  0
M  END
>  <ref_pdb>  (18) 
x0554_0A

>  <ref_mols>  (18) 
x0310_0A,x0566_0A

>  <original SMILES>  (18) 
C[C@@H]1CN=C(NC(=O)C2(c3cccc(Br)c3)CCOCC2)S1

>  <rationale>  (18) 
-1

>  <IC50 (nM)>  (18) 
1774.679775293821

>  <CNNaffinity>  (18) 
5.75088

$$$$
Z3173990451
     RDKit          3D

 23 24  0  0  0  0  0  0  0  0999 V2000
    8.8076   14.9172   17.7084 C   0  0  0  0  0  0  0  0  0  0  0  0
   10.1588   15.0355   18.4544 C   0  0  1  0  0  0  0  0  0  0  0  0
   10.2235   14.0416   19.6427 C   0  0  0  0  0  0  0  0  0  0  0  0
   11.2462   14.2828   20.7596 C   0  0  0  0  0  0  0  0  0  0  0  0
   11.0464   13.3199   21.8428 N   0  0  0  0  0  0  0  0  0  0  0  0
    9.9496   13.4090   22.6728 C   0  0  0  0  0  0  0  0  0  0  0  0
    9.2280   14.3920   22.6515 O   0  0  0  0  0  0  0  0  0  0  0  0
    9.6985   12.2358   23.6854 C   0  0  0  0  0  0  0  0  0  0  0  0
   10.5828   12.5623   24.9145 C   0  0  0  0  0  0  0  0  0  0  0  0
   10.0857   13.0006   26.1509 C   0  0  0  0  0  0  0  0  0  0  0  0
   10.9496   13.2332   27.2286 C   0  0  0  0  0  0  0  0  0  0  0  0
   12.3281   13.0444   27.0938 C   0  0  0  0  0  0  0  0  0  0  0  0
   12.8280   12.6635   25.8481 C   0  0  0  0  0  0  0  0  0  0  0  0
   14.5465   12.4608   25.6413 Cl  0  0  0  0  0  0  0  0  0  0  0  0
   11.9792   12.4471   24.7646 C   0  0  0  0  0  0  0  0  0  0  0  0
   10.0548   10.8041   23.1394 C   0  0  0  0  0  0  0  0  0  0  0  0
    9.6143    9.7196   24.1313 C   0  0  0  0  0  0  0  0  0  0  0  0
    8.2125    9.7510   24.3372 O   0  0  0  0  0  0  0  0  0  0  0  0
    7.7555   10.9810   24.8715 C   0  0  0  0  0  0  0  0  0  0  0  0
    8.1627   12.1784   23.9980 C   0  0  0  0  0  0  0  0  0  0  0  0
   11.3252   14.8968   17.4778 C   0  0  0  0  0  0  0  0  0  0  0  0
   11.2708   14.8551   16.2702 O   0  0  0  0  0  0  0  0  0  0  0  0
   12.5371   14.8246   18.0570 O   0  0  0  0  0  0  0  0  0  0  0  0
  2  1  1  6
  2  3  1  0
  3  4  1  0
  4  5  1  0
  5  6  1  0
  6  7  2  0
  6  8  1  0
  8  9  1  0
  9 10  2  0
 10 11  1  0
 11 12  2  0
 12 13  1  0
 13 14  1  0
 13 15  2  0
  8 16  1  0
 16 17  1  0
 17 18  1  0
 18 19  1  0
 19 20  1  0
  2 21  1  0
 21 22  2  0
 21 23  1  0
 20  8  1  0
 15  9  1  0
M  END
>  <ref_pdb>  (19) 
x0554_0A

>  <ref_mols>  (19) 
x0310_0A,x0566_0A

>  <original SMILES>  (19) 
C[C@@H](CCNC(=O)C1(c2cccc(Cl)c2)CCOCC1)C(=O)O

>  <rationale>  (19) 
-1

>  <IC50 (nM)>  (19) 
1775.3337119372752

>  <CNNaffinity>  (19) 
5.75072

$$$$
Z3711410857
     RDKit          3D

 23 25  0  0  0  0  0  0  0  0999 V2000
   12.4278   16.4235   17.1194 N   0  0  0  0  0  0  0  0  0  0  0  0
   12.1818   15.6636   17.9585 C   0  0  0  0  0  0  0  0  0  0  0  0
   11.8907   14.7073   19.0320 C   0  0  1  0  0  0  0  0  0  0  0  0
   11.6336   15.2915   20.4582 C   0  0  0  0  0  0  0  0  0  0  0  0
   10.2634   14.5613   20.5257 C   0  0  2  0  0  0  0  0  0  0  0  0
   10.1852   13.4633   21.4651 N   0  0  0  0  0  0  0  0  0  0  0  0
    9.5261   13.5550   22.6628 C   0  0  0  0  0  0  0  0  0  0  0  0
    8.8786   14.5516   22.9426 O   0  0  0  0  0  0  0  0  0  0  0  0
    9.5600   12.3382   23.6770 C   0  0  0  0  0  0  0  0  0  0  0  0
   10.5372   12.7239   24.8237 C   0  0  0  0  0  0  0  0  0  0  0  0
   10.0800   12.9863   26.1309 C   0  0  0  0  0  0  0  0  0  0  0  0
   10.9400   13.0780   27.2270 C   0  0  0  0  0  0  0  0  0  0  0  0
   12.3151   12.9703   27.0228 C   0  0  0  0  0  0  0  0  0  0  0  0
   13.4088   13.0092   28.3696 Cl  0  0  0  0  0  0  0  0  0  0  0  0
   12.8253   12.8417   25.7358 C   0  0  0  0  0  0  0  0  0  0  0  0
   11.9424   12.7751   24.6532 C   0  0  0  0  0  0  0  0  0  0  0  0
   12.7270   12.8235   23.0931 Cl  0  0  0  0  0  0  0  0  0  0  0  0
    9.9703   10.9335   23.1017 C   0  0  0  0  0  0  0  0  0  0  0  0
    9.6701    9.8061   24.1024 C   0  0  0  0  0  0  0  0  0  0  0  0
    8.2880    9.7320   24.3986 O   0  0  0  0  0  0  0  0  0  0  0  0
    7.8045   10.9137   25.0078 C   0  0  0  0  0  0  0  0  0  0  0  0
    8.0605   12.1519   24.1400 C   0  0  0  0  0  0  0  0  0  0  0  0
   10.4553   14.0908   19.0691 C   0  0  0  0  0  0  0  0  0  0  0  0
  1  2  3  0
  3  2  1  6
  3  4  1  0
  4  5  1  0
  5  6  1  1
  6  7  1  0
  7  8  2  0
  7  9  1  0
  9 10  1  0
 10 11  2  0
 11 12  1  0
 12 13  2  0
 13 14  1  0
 13 15  1  0
 15 16  2  0
 16 17  1  0
  9 18  1  0
 18 19  1  0
 19 20  1  0
 20 21  1  0
 21 22  1  0
  5 23  1  0
 23  3  1  0
 22  9  1  0
 16 10  1  0
M  END
>  <ref_pdb>  (20) 
x0554_0A

>  <ref_mols>  (20) 
x0310_0A,x0566_0A

>  <original SMILES>  (20) 
N#C[C@H]1C[C@H](NC(=O)C2(c3ccc(Cl)cc3Cl)CCOCC2)C1

>  <rationale>  (20) 
-1

>  <IC50 (nM)>  (20) 
1777.7881211568283

>  <CNNaffinity>  (20) 
5.75012

$$$$
Z1128356020
     RDKit          3D

 23 24  0  0  0  0  0  0  0  0999 V2000
    9.6979   16.3146   18.2116 N   0  0  0  0  0  0  0  0  0  0  0  0
   10.8172   15.3332   17.4841 S   0  0  0  0  0  6  0  0  0  0  0  0
   11.2218   16.1392   16.3301 O   0  0  0  0  0  0  0  0  0  0  0  0
   10.0977   14.1059   17.1434 O   0  0  0  0  0  0  0  0  0  0  0  0
   12.1335   15.1552   18.7198 C   0  0  0  0  0  0  0  0  0  0  0  0
   11.9274   13.9976   19.7253 C   0  0  0  0  0  0  0  0  0  0  0  0
   10.7327   14.2526   20.6527 C   0  0  0  0  0  0  0  0  0  0  0  0
   10.6264   13.2136   21.6820 N   0  0  0  0  0  0  0  0  0  0  0  0
    9.6312   13.1993   22.6504 C   0  0  0  0  0  0  0  0  0  0  0  0
    8.8448   14.1404   22.6233 O   0  0  0  0  0  0  0  0  0  0  0  0
    9.4761   12.0695   23.7210 C   0  0  0  0  0  0  0  0  0  0  0  0
   10.4356   12.3847   24.8647 C   0  0  0  0  0  0  0  0  0  0  0  0
    9.9829   12.7970   26.1279 C   0  0  0  0  0  0  0  0  0  0  0  0
   10.8922   13.0732   27.1559 C   0  0  0  0  0  0  0  0  0  0  0  0
   12.2646   12.9282   26.9428 C   0  0  0  0  0  0  0  0  0  0  0  0
   13.5105   13.3150   28.3376 Br  0  0  0  0  0  0  0  0  0  0  0  0
   12.7243   12.5290   25.6869 C   0  0  0  0  0  0  0  0  0  0  0  0
   11.8164   12.2792   24.6515 C   0  0  0  0  0  0  0  0  0  0  0  0
    9.8078   10.6382   23.2004 C   0  0  0  0  0  0  0  0  0  0  0  0
    9.4927    9.5755   24.2696 C   0  0  0  0  0  0  0  0  0  0  0  0
    8.1066    9.6352   24.6256 O   0  0  0  0  0  0  0  0  0  0  0  0
    7.7448   10.8932   25.2063 C   0  0  0  0  0  0  0  0  0  0  0  0
    7.9986   12.0272   24.2081 C   0  0  0  0  0  0  0  0  0  0  0  0
  1  2  1  0
  2  3  2  0
  2  4  2  0
  2  5  1  0
  5  6  1  0
  6  7  1  0
  7  8  1  0
  8  9  1  0
  9 10  2  0
  9 11  1  0
 11 12  1  0
 12 13  2  0
 13 14  1  0
 14 15  2  0
 15 16  1  0
 15 17  1  0
 17 18  2  0
 11 19  1  0
 19 20  1  0
 20 21  1  0
 21 22  1  0
 22 23  1  0
 23 11  1  0
 18 12  1  0
M  END
>  <ref_pdb>  (21) 
x0554_0A

>  <ref_mols>  (21) 
x0310_0A,x0566_0A

>  <original SMILES>  (21) 
NS(=O)(=O)CCCNC(=O)C1(c2ccc(Br)cc2)CCOCC1

>  <rationale>  (21) 
-1

>  <IC50 (nM)>  (21) 
1786.9401215235828

>  <CNNaffinity>  (21) 
5.74789

$$$$
Z1835877450
     RDKit          3D

 22 24  0  0  0  0  0  0  0  0999 V2000
    8.7009   14.2810   22.7754 O   0  0  0  0  0  0  0  0  0  0  0  0
    9.4749   13.3431   22.6902 C   0  0  0  0  0  0  0  0  0  0  0  0
   10.3490   13.2896   21.6335 N   0  0  0  0  0  0  0  0  0  0  0  0
   10.1180   13.9793   20.4480 C   0  0  0  0  0  0  0  0  0  0  0  0
    9.2631   15.0105   20.1663 C   0  0  0  0  0  0  0  0  0  0  0  0
    9.4732   15.2152   18.8394 N   0  0  0  0  0  0  0  0  0  0  0  0
   10.3795   14.3744   18.3433 N   0  0  0  0  0  0  0  0  0  0  0  0
   10.7770   13.6196   19.3268 N   0  0  0  0  0  0  0  0  0  0  0  0
    9.4494   12.1795   23.7722 C   0  0  0  0  0  0  0  0  0  0  0  0
   10.4258   12.5550   24.9127 C   0  0  0  0  0  0  0  0  0  0  0  0
   10.0359   12.9200   26.2148 C   0  0  0  0  0  0  0  0  0  0  0  0
   10.9701   13.1007   27.2403 C   0  0  0  0  0  0  0  0  0  0  0  0
   12.3205   12.9342   26.9585 C   0  0  0  0  0  0  0  0  0  0  0  0
   13.2215   13.0650   27.9417 F   0  0  0  0  0  0  0  0  0  0  0  0
   12.7726   12.6571   25.6761 C   0  0  0  0  0  0  0  0  0  0  0  0
   11.8112   12.5132   24.6857 C   0  0  0  0  0  0  0  0  0  0  0  0
   12.2613   12.3508   23.4173 F   0  0  0  0  0  0  0  0  0  0  0  0
    9.8197   10.7611   23.1999 C   0  0  0  0  0  0  0  0  0  0  0  0
    9.4954    9.6513   24.2131 C   0  0  0  0  0  0  0  0  0  0  0  0
    8.1207    9.6343   24.5468 O   0  0  0  0  0  0  0  0  0  0  0  0
    7.6714   10.8379   25.1382 C   0  0  0  0  0  0  0  0  0  0  0  0
    7.9504   12.0473   24.2417 C   0  0  0  0  0  0  0  0  0  0  0  0
  1  2  2  0
  2  3  1  0
  3  4  1  0
  4  5  2  0
  5  6  1  0
  6  7  1  0
  7  8  2  0
  2  9  1  0
  9 10  1  0
 10 11  2  0
 11 12  1  0
 12 13  2  0
 13 14  1  0
 13 15  1  0
 15 16  2  0
 16 17  1  0
  9 18  1  0
 18 19  1  0
 19 20  1  0
 20 21  1  0
 21 22  1  0
  8  4  1  0
 22  9  1  0
 16 10  1  0
M  END
>  <ref_pdb>  (22) 
x0554_0A

>  <ref_mols>  (22) 
x0310_0A,x0566_0A

>  <original SMILES>  (22) 
O=C(Nc1c[nH]nn1)C1(c2ccc(F)cc2F)CCOCC1

>  <rationale>  (22) 
-1

>  <IC50 (nM)>  (22) 
1794.1964787340805

>  <CNNaffinity>  (22) 
5.74613

$$$$
Z1580048055
     RDKit          3D

 23 25  0  0  0  0  0  0  0  0999 V2000
   10.6463   15.5396   16.7599 C   0  0  0  0  0  0  0  0  0  0  0  0
   10.7044   15.0001   18.1657 C   0  0  0  0  0  0  0  0  0  0  0  0
    9.6199   15.1179   19.0121 C   0  0  0  0  0  0  0  0  0  0  0  0
    9.5991   14.5651   20.2192 N   0  0  0  0  0  0  0  0  0  0  0  0
   10.6994   13.9323   20.5956 C   0  0  0  0  0  0  0  0  0  0  0  0
   10.7201   13.2300   21.7460 N   0  0  0  0  0  0  0  0  0  0  0  0
    9.6406   13.2229   22.5887 C   0  0  0  0  0  0  0  0  0  0  0  0
    8.8027   14.1091   22.4516 O   0  0  0  0  0  0  0  0  0  0  0  0
    9.4660   12.1194   23.6677 C   0  0  0  0  0  0  0  0  0  0  0  0
   10.4299   12.4391   24.8038 C   0  0  0  0  0  0  0  0  0  0  0  0
    9.9846   12.8562   26.0672 C   0  0  0  0  0  0  0  0  0  0  0  0
   10.8934   13.0927   27.1077 C   0  0  0  0  0  0  0  0  0  0  0  0
   12.2656   12.9160   26.9011 C   0  0  0  0  0  0  0  0  0  0  0  0
   13.5028   13.2387   28.3244 Br  0  0  0  0  0  0  0  0  0  0  0  0
   12.7227   12.5166   25.6420 C   0  0  0  0  0  0  0  0  0  0  0  0
   11.8108   12.2986   24.6011 C   0  0  0  0  0  0  0  0  0  0  0  0
    9.8154   10.6944   23.1453 C   0  0  0  0  0  0  0  0  0  0  0  0
    9.4961    9.6332   24.2096 C   0  0  0  0  0  0  0  0  0  0  0  0
    8.1103    9.6859   24.5668 O   0  0  0  0  0  0  0  0  0  0  0  0
    7.7357   10.9392   25.1494 C   0  0  0  0  0  0  0  0  0  0  0  0
    7.9900   12.0759   24.1559 C   0  0  0  0  0  0  0  0  0  0  0  0
   11.8033   13.8064   19.8849 N   0  0  0  0  0  0  0  0  0  0  0  0
   11.8145   14.3394   18.6669 C   0  0  0  0  0  0  0  0  0  0  0  0
  1  2  1  0
  2  3  2  0
  3  4  1  0
  4  5  2  0
  5  6  1  0
  6  7  1  0
  7  8  2  0
  7  9  1  0
  9 10  1  0
 10 11  2  0
 11 12  1  0
 12 13  2  0
 13 14  1  0
 13 15  1  0
 15 16  2  0
  9 17  1  0
 17 18  1  0
 18 19  1  0
 19 20  1  0
 20 21  1  0
  5 22  1  0
 22 23  2  0
 23  2  1  0
 21  9  1  0
 16 10  1  0
M  END
>  <ref_pdb>  (23) 
x0554_0A

>  <ref_mols>  (23) 
x0310_0A,x0566_0A

>  <original SMILES>  (23) 
Cc1cnc(NC(=O)C2(c3ccc(Br)cc3)CCOCC2)nc1

>  <rationale>  (23) 
-1

>  <IC50 (nM)>  (23) 
1811.0481626183202

>  <CNNaffinity>  (23) 
5.74207

$$$$
Z1657795507
     RDKit          3D

 23 25  0  0  0  0  0  0  0  0999 V2000
   11.5754   15.3021   17.3917 C   0  0  0  0  0  0  0  0  0  0  0  0
   10.8015   14.9395   18.6145 C   0  0  0  0  0  0  0  0  0  0  0  0
    9.5752   15.2861   18.8890 N   0  0  0  0  0  0  0  0  0  0  0  0
    9.2306   14.7106   20.1010 N   0  0  0  0  0  0  0  0  0  0  0  0
   10.2664   14.0422   20.4948 C   0  0  0  0  0  0  0  0  0  0  0  0
   10.4030   13.2046   21.5963 N   0  0  0  0  0  0  0  0  0  0  0  0
    9.6152   13.3495   22.7260 C   0  0  0  0  0  0  0  0  0  0  0  0
    9.0541   14.3965   22.9492 O   0  0  0  0  0  0  0  0  0  0  0  0
    9.5044   12.1399   23.7326 C   0  0  0  0  0  0  0  0  0  0  0  0
   10.4697   12.4922   24.8936 C   0  0  0  0  0  0  0  0  0  0  0  0
   10.0481   12.9710   26.1435 C   0  0  0  0  0  0  0  0  0  0  0  0
   10.9579   13.1864   27.1856 C   0  0  0  0  0  0  0  0  0  0  0  0
   12.3168   12.9530   26.9677 C   0  0  0  0  0  0  0  0  0  0  0  0
   13.4569   13.1728   28.2623 Cl  0  0  0  0  0  0  0  0  0  0  0  0
   12.7771   12.5608   25.7107 C   0  0  0  0  0  0  0  0  0  0  0  0
   11.8552   12.3646   24.6822 C   0  0  0  0  0  0  0  0  0  0  0  0
    9.8587   10.7254   23.1479 C   0  0  0  0  0  0  0  0  0  0  0  0
    9.5345    9.6310   24.1737 C   0  0  0  0  0  0  0  0  0  0  0  0
    8.1575    9.6213   24.5021 O   0  0  0  0  0  0  0  0  0  0  0  0
    7.6989   10.8356   25.0673 C   0  0  0  0  0  0  0  0  0  0  0  0
    7.9942   12.0362   24.1596 C   0  0  0  0  0  0  0  0  0  0  0  0
   11.3061   14.1421   19.6118 N   0  0  0  0  0  0  0  0  0  0  0  0
   12.6779   13.6973   19.7906 C   0  0  0  0  0  0  0  0  0  0  0  0
  1  2  1  0
  2  3  2  0
  3  4  1  0
  4  5  2  0
  5  6  1  0
  6  7  1  0
  7  8  2  0
  7  9  1  0
  9 10  1  0
 10 11  2  0
 11 12  1  0
 12 13  2  0
 13 14  1  0
 13 15  1  0
 15 16  2  0
  9 17  1  0
 17 18  1  0
 18 19  1  0
 19 20  1  0
 20 21  1  0
  5 22  1  0
 22 23  1  0
 22  2  1  0
 21  9  1  0
 16 10  1  0
M  END
>  <ref_pdb>  (24) 
x0554_0A

>  <ref_mols>  (24) 
x0310_0A,x0566_0A

>  <original SMILES>  (24) 
Cc1nnc(NC(=O)C2(c3ccc(Cl)cc3)CCOCC2)n1C

>  <rationale>  (24) 
-1

>  <IC50 (nM)>  (24) 
1826.5854757665986

>  <CNNaffinity>  (24) 
5.73836

$$$$
Z2828446121
     RDKit          3D

 23 26  0  0  0  0  0  0  0  0999 V2000
   12.5097   16.1296   17.3617 N   0  0  0  0  0  0  0  0  0  0  0  0
   11.2196   16.3991   17.9889 C   0  0  0  0  0  0  0  0  0  0  0  0
   10.9859   15.5004   19.1987 C   0  0  2  0  0  0  0  0  0  0  0  0
   11.1804   13.9620   19.1494 C   0  0  0  0  0  0  0  0  0  0  0  0
   10.6068   14.2825   20.5363 C   0  0  2  0  0  0  0  0  0  0  0  0
   10.3033   13.2889   21.4942 N   0  0  0  0  0  0  0  0  0  0  0  0
    9.7172   13.5813   22.6985 C   0  0  0  0  0  0  0  0  0  0  0  0
    9.2699   14.6892   22.9304 O   0  0  0  0  0  0  0  0  0  0  0  0
    9.6298   12.4206   23.7589 C   0  0  0  0  0  0  0  0  0  0  0  0
   10.5535   12.8140   24.9473 C   0  0  0  0  0  0  0  0  0  0  0  0
   10.0402   13.0699   26.2355 C   0  0  0  0  0  0  0  0  0  0  0  0
   10.8565   13.2174   27.3565 C   0  0  0  0  0  0  0  0  0  0  0  0
   12.2425   13.1341   27.2221 C   0  0  0  0  0  0  0  0  0  0  0  0
   12.7968   12.9868   25.9517 C   0  0  0  0  0  0  0  0  0  0  0  0
   11.9628   12.8868   24.8302 C   0  0  0  0  0  0  0  0  0  0  0  0
   12.8119   12.9485   23.3011 Cl  0  0  0  0  0  0  0  0  0  0  0  0
   10.0508   11.0126   23.2061 C   0  0  0  0  0  0  0  0  0  0  0  0
    9.7298    9.8971   24.2002 C   0  0  0  0  0  0  0  0  0  0  0  0
    8.3355    9.8282   24.4399 O   0  0  0  0  0  0  0  0  0  0  0  0
    7.8296   11.0090   25.0370 C   0  0  0  0  0  0  0  0  0  0  0  0
    8.1149   12.2582   24.1782 C   0  0  0  0  0  0  0  0  0  0  0  0
    9.6086   15.2645   19.8809 C   0  0  0  0  0  0  0  0  0  0  0  0
   11.6260   15.4712   20.6314 C   0  0  0  0  0  0  0  0  0  0  0  0
  1  2  1  0
  3  2  1  6
  3  4  1  0
  4  5  1  0
  5  6  1  1
  6  7  1  0
  7  8  2  0
  7  9  1  0
  9 10  1  0
 10 11  2  0
 11 12  1  0
 12 13  2  0
 13 14  1  0
 14 15  2  0
 15 16  1  0
  9 17  1  0
 17 18  1  0
 18 19  1  0
 19 20  1  0
 20 21  1  0
  5 22  1  0
  5 23  1  0
 22  3  1  0
 23  3  1  0
 21  9  1  0
 15 10  1  0
M  END
>  <ref_pdb>  (25) 
x0554_0A

>  <ref_mols>  (25) 
x0310_0A,x0566_0A

>  <original SMILES>  (25) 
NC[C@]12C[C@](NC(=O)C3(c4ccccc4Cl)CCOCC3)(C1)C2

>  <rationale>  (25) 
-1

>  <IC50 (nM)>  (25) 
1839.4161701025748

>  <CNNaffinity>  (25) 
5.73532

$$$$
Z2229682866
     RDKit          3D

 23 25  0  0  0  0  0  0  0  0999 V2000
   11.9054   15.0029   17.4579 C   0  0  0  0  0  0  0  0  0  0  0  0
   11.2201   14.7746   18.7658 C   0  0  0  0  0  0  0  0  0  0  0  0
   11.5799   13.9079   19.6605 N   0  0  0  0  0  0  0  0  0  0  0  0
   10.6355   14.1018   20.6308 C   0  0  0  0  0  0  0  0  0  0  0  0
   10.6748   13.2891   21.7193 N   0  0  0  0  0  0  0  0  0  0  0  0
    9.6256   13.2480   22.6035 C   0  0  0  0  0  0  0  0  0  0  0  0
    8.7488   14.0927   22.4662 O   0  0  0  0  0  0  0  0  0  0  0  0
    9.4882   12.1387   23.6911 C   0  0  0  0  0  0  0  0  0  0  0  0
   10.4376   12.4708   24.8393 C   0  0  0  0  0  0  0  0  0  0  0  0
    9.9565   12.8518   26.1023 C   0  0  0  0  0  0  0  0  0  0  0  0
   10.8368   13.1222   27.1522 C   0  0  0  0  0  0  0  0  0  0  0  0
   12.2137   13.0068   26.9515 C   0  0  0  0  0  0  0  0  0  0  0  0
   12.7164   12.6442   25.7001 C   0  0  0  0  0  0  0  0  0  0  0  0
   14.6036   12.4966   25.4332 Br  0  0  0  0  0  0  0  0  0  0  0  0
   11.8274   12.3929   24.6488 C   0  0  0  0  0  0  0  0  0  0  0  0
    9.8439   10.7192   23.1626 C   0  0  0  0  0  0  0  0  0  0  0  0
    9.5430    9.6432   24.2186 C   0  0  0  0  0  0  0  0  0  0  0  0
    8.1551    9.6833   24.5725 O   0  0  0  0  0  0  0  0  0  0  0  0
    7.7765   10.9303   25.1664 C   0  0  0  0  0  0  0  0  0  0  0  0
    8.0095   12.0719   24.1734 C   0  0  0  0  0  0  0  0  0  0  0  0
    9.7303   15.0161   20.4135 N   0  0  0  0  0  0  0  0  0  0  0  0
   10.1130   15.4763   19.2053 N   0  0  0  0  0  0  0  0  0  0  0  0
    9.4648   16.5660   18.4759 C   0  0  0  0  0  0  0  0  0  0  0  0
  1  2  1  0
  2  3  2  0
  3  4  1  0
  4  5  1  0
  5  6  1  0
  6  7  2  0
  6  8  1  0
  8  9  1  0
  9 10  2  0
 10 11  1  0
 11 12  2  0
 12 13  1  0
 13 14  1  0
 13 15  2  0
  8 16  1  0
 16 17  1  0
 17 18  1  0
 18 19  1  0
 19 20  1  0
  4 21  2  0
 21 22  1  0
 22 23  1  0
 22  2  1  0
 20  8  1  0
 15  9  1  0
M  END
>  <ref_pdb>  (26) 
x0554_0A

>  <ref_mols>  (26) 
x0310_0A,x0566_0A

>  <original SMILES>  (26) 
Cc1nc(NC(=O)C2(c3cccc(Br)c3)CCOCC2)nn1C

>  <rationale>  (26) 
-1

>  <IC50 (nM)>  (26) 
1876.981534025524

>  <CNNaffinity>  (26) 
5.72654

$$$$
Z2963653155
     RDKit          3D

 23 25  0  0  0  0  0  0  0  0999 V2000
    8.9031   14.5575   23.0991 O   0  0  0  0  0  0  0  0  0  0  0  0
    9.5046   13.5450   22.7823 C   0  0  0  0  0  0  0  0  0  0  0  0
   10.1354   13.4399   21.5724 N   0  0  0  0  0  0  0  0  0  0  0  0
   10.1899   14.5041   20.5975 C   0  0  1  0  0  0  0  0  0  0  0  0
   11.5593   15.2417   20.4596 C   0  0  0  0  0  0  0  0  0  0  0  0
   11.7893   14.5801   19.0698 C   0  0  2  0  0  0  0  0  0  0  0  0
   12.0280   15.4594   17.8498 C   0  0  0  0  0  0  0  0  0  0  0  0
   11.5998   14.8133   16.6611 O   0  0  0  0  0  0  0  0  0  0  0  0
   10.3688   13.9733   19.1656 C   0  0  0  0  0  0  0  0  0  0  0  0
    9.5291   12.3107   23.7723 C   0  0  0  0  0  0  0  0  0  0  0  0
   10.5210   12.6771   24.9089 C   0  0  0  0  0  0  0  0  0  0  0  0
   10.0753   12.9490   26.2172 C   0  0  0  0  0  0  0  0  0  0  0  0
   10.9484   13.0887   27.2989 C   0  0  0  0  0  0  0  0  0  0  0  0
   12.3189   12.9702   27.0815 C   0  0  0  0  0  0  0  0  0  0  0  0
   13.4260   13.0698   28.4127 Cl  0  0  0  0  0  0  0  0  0  0  0  0
   12.8188   12.8130   25.7933 C   0  0  0  0  0  0  0  0  0  0  0  0
   11.9226   12.7312   24.7209 C   0  0  0  0  0  0  0  0  0  0  0  0
   12.6982   12.7962   23.1568 Cl  0  0  0  0  0  0  0  0  0  0  0  0
    9.9256   10.9190   23.1642 C   0  0  0  0  0  0  0  0  0  0  0  0
    9.6508    9.7694   24.1446 C   0  0  0  0  0  0  0  0  0  0  0  0
    8.2739    9.6867   24.4638 O   0  0  0  0  0  0  0  0  0  0  0  0
    7.7926   10.8567   25.0997 C   0  0  0  0  0  0  0  0  0  0  0  0
    8.0335   12.1124   24.2472 C   0  0  0  0  0  0  0  0  0  0  0  0
  1  2  2  0
  2  3  1  0
  4  3  1  1
  4  5  1  0
  5  6  1  0
  6  7  1  6
  7  8  1  0
  6  9  1  0
  2 10  1  0
 10 11  1  0
 11 12  2  0
 12 13  1  0
 13 14  2  0
 14 15  1  0
 14 16  1  0
 16 17  2  0
 17 18  1  0
 10 19  1  0
 19 20  1  0
 20 21  1  0
 21 22  1  0
 22 23  1  0
  9  4  1  0
 23 10  1  0
 17 11  1  0
M  END
>  <ref_pdb>  (27) 
x0554_0A

>  <ref_mols>  (27) 
x0310_0A,x0566_0A

>  <original SMILES>  (27) 
O=C(N[C@H]1C[C@H](CO)C1)C1(c2ccc(Cl)cc2Cl)CCOCC1

>  <rationale>  (27) 
-1

>  <IC50 (nM)>  (27) 
1887.7739985714286

>  <CNNaffinity>  (27) 
5.72405

$$$$
Z4185544845
     RDKit          3D

 23 25  0  0  0  0  0  0  0  0999 V2000
   11.6664   14.8157   17.3537 C   0  0  0  0  0  0  0  0  0  0  0  0
   10.9022   14.7439   18.5782 N   0  0  0  0  0  0  0  0  0  0  0  0
   11.1900   13.8416   19.5492 N   0  0  0  0  0  0  0  0  0  0  0  0
   10.2812   14.0595   20.4797 C   0  0  0  0  0  0  0  0  0  0  0  0
   10.3457   13.2484   21.5931 N   0  0  0  0  0  0  0  0  0  0  0  0
    9.5463   13.3745   22.6924 C   0  0  0  0  0  0  0  0  0  0  0  0
    8.8790   14.3829   22.8480 O   0  0  0  0  0  0  0  0  0  0  0  0
    9.4933   12.1915   23.7246 C   0  0  0  0  0  0  0  0  0  0  0  0
   10.4515   12.5643   24.8850 C   0  0  0  0  0  0  0  0  0  0  0  0
   10.0227   13.0119   26.1494 C   0  0  0  0  0  0  0  0  0  0  0  0
   10.9421   13.2374   27.1822 C   0  0  0  0  0  0  0  0  0  0  0  0
   12.3118   13.0405   26.9776 C   0  0  0  0  0  0  0  0  0  0  0  0
   12.7309   12.6653   25.7048 C   0  0  0  0  0  0  0  0  0  0  0  0
   14.0459   12.4958   25.4805 F   0  0  0  0  0  0  0  0  0  0  0  0
   11.8373   12.4528   24.6616 C   0  0  0  0  0  0  0  0  0  0  0  0
    9.8984   10.7998   23.1195 C   0  0  0  0  0  0  0  0  0  0  0  0
    9.6314    9.6692   24.1167 C   0  0  0  0  0  0  0  0  0  0  0  0
    8.2553    9.5946   24.4414 O   0  0  0  0  0  0  0  0  0  0  0  0
    7.7534   10.7769   25.0381 C   0  0  0  0  0  0  0  0  0  0  0  0
    7.9956   12.0157   24.1639 C   0  0  0  0  0  0  0  0  0  0  0  0
    9.3576   15.0662   20.1451 C   0  0  0  0  0  0  0  0  0  0  0  0
    9.8168   15.4627   18.9176 C   0  0  0  0  0  0  0  0  0  0  0  0
    9.3651   16.3935   18.0834 F   0  0  0  0  0  0  0  0  0  0  0  0
  1  2  1  0
  2  3  1  0
  3  4  2  0
  4  5  1  0
  5  6  1  0
  6  7  2  0
  6  8  1  0
  8  9  1  0
  9 10  2  0
 10 11  1  0
 11 12  2  0
 12 13  1  0
 13 14  1  0
 13 15  2  0
  8 16  1  0
 16 17  1  0
 17 18  1  0
 18 19  1  0
 19 20  1  0
  4 21  1  0
 21 22  2  0
 22 23  1  0
 22  2  1  0
 20  8  1  0
 15  9  1  0
M  END
>  <ref_pdb>  (28) 
x0554_0A

>  <ref_mols>  (28) 
x0310_0A,x0566_0A

>  <original SMILES>  (28) 
Cn1nc(NC(=O)C2(c3cccc(F)c3)CCOCC2)cc1F

>  <rationale>  (28) 
-1

>  <IC50 (nM)>  (28) 
1889.6440311043627

>  <CNNaffinity>  (28) 
5.72362

$$$$
Z2718717537
     RDKit          3D

 23 25  0  0  0  0  0  0  0  0999 V2000
   11.4972   14.6934   16.5247 N   0  0  0  0  0  0  0  0  0  0  0  0
   11.9268   15.3365   17.6561 C   0  0  0  0  0  0  0  0  0  0  0  0
   12.3258   16.4794   17.5918 O   0  0  0  0  0  0  0  0  0  0  0  0
   11.7835   14.4907   18.9128 C   0  0  1  0  0  0  0  0  0  0  0  0
   11.6650   15.1674   20.3057 C   0  0  0  0  0  0  0  0  0  0  0  0
   10.2838   14.4814   20.5397 C   0  0  2  0  0  0  0  0  0  0  0  0
   10.2162   13.4482   21.5441 N   0  0  0  0  0  0  0  0  0  0  0  0
    9.5365   13.5548   22.7255 C   0  0  0  0  0  0  0  0  0  0  0  0
    8.9053   14.5602   23.0036 O   0  0  0  0  0  0  0  0  0  0  0  0
    9.5456   12.3287   23.7248 C   0  0  0  0  0  0  0  0  0  0  0  0
   10.5205   12.6951   24.8770 C   0  0  0  0  0  0  0  0  0  0  0  0
   10.0559   12.9626   26.1798 C   0  0  0  0  0  0  0  0  0  0  0  0
   10.9177   13.0841   27.2715 C   0  0  0  0  0  0  0  0  0  0  0  0
   12.2971   12.9675   27.0890 C   0  0  0  0  0  0  0  0  0  0  0  0
   12.8021   12.8188   25.7991 C   0  0  0  0  0  0  0  0  0  0  0  0
   11.9262   12.7408   24.7102 C   0  0  0  0  0  0  0  0  0  0  0  0
   12.7255   12.7923   23.1542 Cl  0  0  0  0  0  0  0  0  0  0  0  0
    9.9530   10.9338   23.1292 C   0  0  0  0  0  0  0  0  0  0  0  0
    9.6679    9.7915   24.1146 C   0  0  0  0  0  0  0  0  0  0  0  0
    8.2872    9.7070   24.4163 O   0  0  0  0  0  0  0  0  0  0  0  0
    7.7966   10.8804   25.0390 C   0  0  0  0  0  0  0  0  0  0  0  0
    8.0447   12.1314   24.1811 C   0  0  0  0  0  0  0  0  0  0  0  0
   10.3679   13.8933   19.1213 C   0  0  0  0  0  0  0  0  0  0  0  0
  1  2  1  0
  2  3  2  0
  4  2  1  6
  4  5  1  0
  5  6  1  0
  6  7  1  1
  7  8  1  0
  8  9  2  0
  8 10  1  0
 10 11  1  0
 11 12  2  0
 12 13  1  0
 13 14  2  0
 14 15  1  0
 15 16  2  0
 16 17  1  0
 10 18  1  0
 18 19  1  0
 19 20  1  0
 20 21  1  0
 21 22  1  0
  6 23  1  0
 23  4  1  0
 22 10  1  0
 16 11  1  0
M  END
>  <ref_pdb>  (29) 
x0554_0A

>  <ref_mols>  (29) 
x0310_0A,x0566_0A

>  <original SMILES>  (29) 
NC(=O)[C@H]1C[C@H](NC(=O)C2(c3ccccc3Cl)CCOCC2)C1

>  <rationale>  (29) 
-1

>  <IC50 (nM)>  (29) 
1910.3810434362106

>  <CNNaffinity>  (29) 
5.71888

$$$$
Z2607290549
     RDKit          3D

 23 24  0  0  0  0  0  0  0  0999 V2000
   11.4112   16.9686   17.3655 C   0  0  0  0  0  0  0  0  0  0  0  0
   11.0451   15.7005   18.1309 C   0  0  0  0  0  0  0  0  0  0  0  0
   10.8576   14.5400   17.1414 C   0  0  0  0  0  0  0  0  0  0  0  0
   12.1077   15.3799   19.2040 C   0  0  2  0  0  0  0  0  0  0  0  0
   13.4023   15.1279   18.5879 N   0  0  0  0  0  0  0  0  0  0  0  0
   11.7711   14.1089   19.9711 C   0  0  0  0  0  0  0  0  0  0  0  0
   10.4679   14.2750   20.7411 C   0  0  0  0  0  0  0  0  0  0  0  0
   10.3619   13.1890   21.7079 N   0  0  0  0  0  0  0  0  0  0  0  0
    9.4660   13.2003   22.7713 C   0  0  0  0  0  0  0  0  0  0  0  0
    8.7105   14.1644   22.8475 O   0  0  0  0  0  0  0  0  0  0  0  0
    9.3900   12.0569   23.8337 C   0  0  0  0  0  0  0  0  0  0  0  0
   10.3734   12.4075   24.9531 C   0  0  0  0  0  0  0  0  0  0  0  0
    9.9321   12.8051   26.2236 C   0  0  0  0  0  0  0  0  0  0  0  0
   10.8425   13.1207   27.2391 C   0  0  0  0  0  0  0  0  0  0  0  0
   12.2162   13.0359   26.9971 C   0  0  0  0  0  0  0  0  0  0  0  0
   12.6835   12.6501   25.7394 C   0  0  0  0  0  0  0  0  0  0  0  0
   14.5680   12.5526   25.4122 Br  0  0  0  0  0  0  0  0  0  0  0  0
   11.7619   12.3495   24.7261 C   0  0  0  0  0  0  0  0  0  0  0  0
    9.7758   10.6582   23.2765 C   0  0  0  0  0  0  0  0  0  0  0  0
    9.5232    9.5379   24.3038 C   0  0  0  0  0  0  0  0  0  0  0  0
    8.1496    9.5265   24.7092 O   0  0  0  0  0  0  0  0  0  0  0  0
    7.7337   10.7535   25.3172 C   0  0  0  0  0  0  0  0  0  0  0  0
    7.9198   11.9198   24.3392 C   0  0  0  0  0  0  0  0  0  0  0  0
  1  2  1  0
  2  3  1  0
  2  4  1  0
  4  5  1  6
  4  6  1  0
  6  7  1  0
  7  8  1  0
  8  9  1  0
  9 10  2  0
  9 11  1  0
 11 12  1  0
 12 13  2  0
 13 14  1  0
 14 15  2  0
 15 16  1  0
 16 17  1  0
 16 18  2  0
 11 19  1  0
 19 20  1  0
 20 21  1  0
 21 22  1  0
 22 23  1  0
 23 11  1  0
 18 12  1  0
M  END
>  <ref_pdb>  (30) 
x0554_0A

>  <ref_mols>  (30) 
x0310_0A,x0566_0A

>  <original SMILES>  (30) 
CC(C)[C@H](N)CCNC(=O)C1(c2cccc(Br)c2)CCOCC1

>  <rationale>  (30) 
-1

>  <IC50 (nM)>  (30) 
1912.0092984565817

>  <CNNaffinity>  (30) 
5.71851

$$$$
Z4030018152
     RDKit          3D

 23 25  0  0  0  0  0  0  0  0999 V2000
   10.6409   16.6929   17.7135 N   0  0  0  0  0  0  0  0  0  0  0  0
   11.0447   15.3034   17.7100 C   0  0  0  0  0  0  0  0  0  0  0  0
   12.1287   15.0047   18.7399 C   0  0  0  0  0  0  0  0  0  0  0  0
   11.8627   13.8467   19.7142 C   0  0  0  0  0  0  0  0  0  0  0  0
   10.6919   14.1231   20.6549 C   0  0  0  0  0  0  0  0  0  0  0  0
   10.5947   13.1098   21.7022 N   0  0  0  0  0  0  0  0  0  0  0  0
    9.6545   13.2042   22.6909 C   0  0  0  0  0  0  0  0  0  0  0  0
    8.9378   14.1932   22.7590 O   0  0  0  0  0  0  0  0  0  0  0  0
    9.5183   12.0498   23.7594 C   0  0  0  0  0  0  0  0  0  0  0  0
   10.4710   12.4222   24.9250 C   0  0  0  0  0  0  0  0  0  0  0  0
   10.0309   12.9014   26.1699 C   0  0  0  0  0  0  0  0  0  0  0  0
   10.9388   13.1659   27.2003 C   0  0  0  0  0  0  0  0  0  0  0  0
   12.3117   12.9775   27.0102 C   0  0  0  0  0  0  0  0  0  0  0  0
   12.7552   12.5602   25.7538 C   0  0  0  0  0  0  0  0  0  0  0  0
   14.4630   12.3520   25.4815 Cl  0  0  0  0  0  0  0  0  0  0  0  0
   11.8590   12.3056   24.7169 C   0  0  0  0  0  0  0  0  0  0  0  0
    9.8523   10.6055   23.2386 C   0  0  0  0  0  0  0  0  0  0  0  0
    9.4802    9.5430   24.2861 C   0  0  0  0  0  0  0  0  0  0  0  0
    8.0994    9.5779   24.5990 O   0  0  0  0  0  0  0  0  0  0  0  0
    7.6746   10.8213   25.1245 C   0  0  0  0  0  0  0  0  0  0  0  0
    8.0062   11.9829   24.1805 C   0  0  0  0  0  0  0  0  0  0  0  0
   10.0251   14.2909   17.2635 C   0  0  0  0  0  0  0  0  0  0  0  0
   11.1279   14.7472   16.3323 C   0  0  0  0  0  0  0  0  0  0  0  0
  1  2  1  0
  2  3  1  0
  3  4  1  0
  4  5  1  0
  5  6  1  0
  6  7  1  0
  7  8  2  0
  7  9  1  0
  9 10  1  0
 10 11  2  0
 11 12  1  0
 12 13  2  0
 13 14  1  0
 14 15  1  0
 14 16  2  0
  9 17  1  0
 17 18  1  0
 18 19  1  0
 19 20  1  0
 20 21  1  0
  2 22  1  0
 22 23  1  0
 23  2  1  0
 21  9  1  0
 16 10  1  0
M  END
>  <ref_pdb>  (31) 
x0554_0A

>  <ref_mols>  (31) 
x0310_0A,x0566_0A

>  <original SMILES>  (31) 
NC1(CCCNC(=O)C2(c3cccc(Cl)c3)CCOCC2)CC1

>  <rationale>  (31) 
-1

>  <IC50 (nM)>  (31) 
1916.108070074262

>  <CNNaffinity>  (31) 
5.71758

$$$$
Z2828448208
     RDKit          3D

 23 26  0  0  0  0  0  0  0  0999 V2000
   12.7154   15.9166   17.5124 N   0  0  0  0  0  0  0  0  0  0  0  0
   11.4169   16.0103   18.1768 C   0  0  0  0  0  0  0  0  0  0  0  0
   11.3889   15.1094   19.4192 C   0  0  2  0  0  0  0  0  0  0  0  0
   11.2241   15.6230   20.8541 C   0  0  0  0  0  0  0  0  0  0  0  0
   11.2445   14.0984   20.8420 C   0  0  2  0  0  0  0  0  0  0  0  0
   11.0228   13.2523   22.0005 N   0  0  0  0  0  0  0  0  0  0  0  0
    9.7877   13.1685   22.6337 C   0  0  0  0  0  0  0  0  0  0  0  0
    8.8896   13.9158   22.2549 O   0  0  0  0  0  0  0  0  0  0  0  0
    9.5360   12.1113   23.7535 C   0  0  0  0  0  0  0  0  0  0  0  0
   10.4555   12.4542   24.9252 C   0  0  0  0  0  0  0  0  0  0  0  0
    9.9590   12.8422   26.1821 C   0  0  0  0  0  0  0  0  0  0  0  0
   10.8301   13.1447   27.2352 C   0  0  0  0  0  0  0  0  0  0  0  0
   12.2126   13.0653   27.0472 C   0  0  0  0  0  0  0  0  0  0  0  0
   12.7252   12.7016   25.8001 C   0  0  0  0  0  0  0  0  0  0  0  0
   14.6136   12.6316   25.5205 Br  0  0  0  0  0  0  0  0  0  0  0  0
   11.8474   12.4092   24.7508 C   0  0  0  0  0  0  0  0  0  0  0  0
    9.8564   10.6793   23.2418 C   0  0  0  0  0  0  0  0  0  0  0  0
    9.5326    9.6126   24.2982 C   0  0  0  0  0  0  0  0  0  0  0  0
    8.1470    9.6807   24.6579 O   0  0  0  0  0  0  0  0  0  0  0  0
    7.7656   10.9479   25.2058 C   0  0  0  0  0  0  0  0  0  0  0  0
    8.0436   12.0752   24.1984 C   0  0  0  0  0  0  0  0  0  0  0  0
   12.4503   14.1020   19.9046 C   0  0  0  0  0  0  0  0  0  0  0  0
   10.3129   14.0536   19.6474 C   0  0  0  0  0  0  0  0  0  0  0  0
  1  2  1  0
  3  2  1  6
  3  4  1  0
  4  5  1  0
  5  6  1  1
  6  7  1  0
  7  8  2  0
  7  9  1  0
  9 10  1  0
 10 11  2  0
 11 12  1  0
 12 13  2  0
 13 14  1  0
 14 15  1  0
 14 16  2  0
  9 17  1  0
 17 18  1  0
 18 19  1  0
 19 20  1  0
 20 21  1  0
  5 22  1  0
  5 23  1  0
 22  3  1  0
 23  3  1  0
 21  9  1  0
 16 10  1  0
M  END
>  <ref_pdb>  (32) 
x0554_0A

>  <ref_mols>  (32) 
x0310_0A,x0566_0A

>  <original SMILES>  (32) 
NC[C@]12C[C@](NC(=O)C3(c4cccc(Br)c4)CCOCC3)(C1)C2

>  <rationale>  (32) 
-1

>  <IC50 (nM)>  (32) 
1918.0944998747802

>  <CNNaffinity>  (32) 
5.71713

$$$$
Z1533570396
     RDKit          3D

 23 24  0  0  0  0  0  0  0  0999 V2000
    9.7031   13.7289   16.7406 C   0  0  0  0  0  0  0  0  0  0  0  0
   10.0897   14.5008   18.0123 C   0  0  0  0  0  0  0  0  0  0  0  0
   10.7593   13.6328   19.0960 C   0  0  0  0  0  0  0  0  0  0  0  0
   10.7428   14.2153   20.5247 C   0  0  2  0  0  0  0  0  0  0  0  0
   12.0878   14.8001   20.9796 C   0  0  0  0  0  0  0  0  0  0  0  0
   12.6800   15.8083   20.0039 C   0  0  0  0  0  0  0  0  0  0  0  0
   10.3776   13.1831   21.4797 N   0  0  0  0  0  0  0  0  0  0  0  0
    9.5378   13.3819   22.5318 C   0  0  0  0  0  0  0  0  0  0  0  0
    8.8396   14.3805   22.6059 O   0  0  0  0  0  0  0  0  0  0  0  0
    9.4704   12.2543   23.6391 C   0  0  0  0  0  0  0  0  0  0  0  0
   10.4351   12.6469   24.7897 C   0  0  0  0  0  0  0  0  0  0  0  0
   10.0380   12.9647   26.1017 C   0  0  0  0  0  0  0  0  0  0  0  0
   10.9596   13.1000   27.1467 C   0  0  0  0  0  0  0  0  0  0  0  0
   12.3161   12.9690   26.8700 C   0  0  0  0  0  0  0  0  0  0  0  0
   13.2054   13.0602   27.8701 F   0  0  0  0  0  0  0  0  0  0  0  0
   12.7771   12.7587   25.5756 C   0  0  0  0  0  0  0  0  0  0  0  0
   11.8237   12.6305   24.5735 C   0  0  0  0  0  0  0  0  0  0  0  0
   12.2954   12.4891   23.3075 F   0  0  0  0  0  0  0  0  0  0  0  0
    9.8495   10.8190   23.1171 C   0  0  0  0  0  0  0  0  0  0  0  0
    9.5239    9.7533   24.1659 C   0  0  0  0  0  0  0  0  0  0  0  0
    8.1409    9.7359   24.4640 O   0  0  0  0  0  0  0  0  0  0  0  0
    7.6791   10.9597   25.0037 C   0  0  0  0  0  0  0  0  0  0  0  0
    7.9715   12.1523   24.0859 C   0  0  0  0  0  0  0  0  0  0  0  0
  1  2  1  0
  2  3  1  0
  4  3  1  6
  4  5  1  0
  5  6  1  0
  4  7  1  0
  7  8  1  0
  8  9  2  0
  8 10  1  0
 10 11  1  0
 11 12  2  0
 12 13  1  0
 13 14  2  0
 14 15  1  0
 14 16  1  0
 16 17  2  0
 17 18  1  0
 10 19  1  0
 19 20  1  0
 20 21  1  0
 21 22  1  0
 22 23  1  0
 23 10  1  0
 17 11  1  0
M  END
>  <ref_pdb>  (33) 
x0554_0A

>  <ref_mols>  (33) 
x0310_0A,x0566_0A

>  <original SMILES>  (33) 
CCC[C@H](CC)NC(=O)C1(c2ccc(F)cc2F)CCOCC1

>  <rationale>  (33) 
-1

>  <IC50 (nM)>  (33) 
1946.121721392028

>  <CNNaffinity>  (33) 
5.71083

$$$$
Z853755938
     RDKit          3D

 23 25  0  0  0  0  0  0  0  0999 V2000
   12.8146   13.1195   19.4817 O   0  0  0  0  0  0  0  0  0  0  0  0
   11.9769   13.9886   19.6091 C   0  0  0  0  0  0  0  0  0  0  0  0
   10.8728   13.9890   20.4513 N   0  0  0  0  0  0  0  0  0  0  0  0
   10.8545   13.2789   21.7038 N   0  0  0  0  0  0  0  0  0  0  0  0
    9.6872   13.2779   22.4686 C   0  0  0  0  0  0  0  0  0  0  0  0
    8.8113   14.0960   22.2738 O   0  0  0  0  0  0  0  0  0  0  0  0
    9.5749   12.1756   23.6191 C   0  0  0  0  0  0  0  0  0  0  0  0
   10.5205   12.5597   24.7927 C   0  0  0  0  0  0  0  0  0  0  0  0
   10.0748   13.0136   26.0473 C   0  0  0  0  0  0  0  0  0  0  0  0
   10.9603   13.1936   27.1177 C   0  0  0  0  0  0  0  0  0  0  0  0
   12.3160   12.9512   26.9227 C   0  0  0  0  0  0  0  0  0  0  0  0
   13.1675   13.0719   27.9553 F   0  0  0  0  0  0  0  0  0  0  0  0
   12.8125   12.5889   25.6745 C   0  0  0  0  0  0  0  0  0  0  0  0
   11.9124   12.4186   24.6189 C   0  0  0  0  0  0  0  0  0  0  0  0
    9.9290   10.7186   23.1254 C   0  0  0  0  0  0  0  0  0  0  0  0
    9.5514    9.6781   24.1887 C   0  0  0  0  0  0  0  0  0  0  0  0
    8.1616    9.7001   24.4593 O   0  0  0  0  0  0  0  0  0  0  0  0
    7.7113   10.9401   24.9696 C   0  0  0  0  0  0  0  0  0  0  0  0
    8.0600   12.1039   24.0366 C   0  0  0  0  0  0  0  0  0  0  0  0
   12.1140   15.1317   18.8481 N   0  0  0  0  0  0  0  0  0  0  0  0
   11.0968   16.0337   18.4111 C   0  0  0  0  0  0  0  0  0  0  0  0
   10.7985   16.0377   16.9415 C   0  0  0  0  0  0  0  0  0  0  0  0
    9.7823   15.5069   17.9073 C   0  0  0  0  0  0  0  0  0  0  0  0
  1  2  2  0
  2  3  1  0
  3  4  1  0
  4  5  1  0
  5  6  2  0
  5  7  1  0
  7  8  1  0
  8  9  2  0
  9 10  1  0
 10 11  2  0
 11 12  1  0
 11 13  1  0
 13 14  2  0
  7 15  1  0
 15 16  1  0
 16 17  1  0
 17 18  1  0
 18 19  1  0
  2 20  1  0
 20 21  1  0
 21 22  1  0
 22 23  1  0
 19  7  1  0
 23 21  1  0
 14  8  1  0
M  END
>  <ref_pdb>  (34) 
x0554_0A

>  <ref_mols>  (34) 
x0310_0A,x0566_0A

>  <original SMILES>  (34) 
O=C(NNC(=O)C1(c2ccc(F)cc2)CCOCC1)NC1CC1

>  <rationale>  (34) 
-1

>  <IC50 (nM)>  (34) 
1947.8252887076296

>  <CNNaffinity>  (34) 
5.71045

$$$$
Z1987926668
     RDKit          3D

 23 24  0  0  0  0  0  0  0  0999 V2000
    7.8825   15.5486   20.5094 C   0  0  0  0  0  0  0  0  0  0  0  0
    9.0014   15.1191   20.3921 C   0  0  0  0  0  0  0  0  0  0  0  0
   10.3496   14.5815   20.6231 C   0  0  1  0  0  0  0  0  0  0  0  0
   10.2341   13.4612   21.5507 N   0  0  0  0  0  0  0  0  0  0  0  0
    9.8327   13.6374   22.8394 C   0  0  0  0  0  0  0  0  0  0  0  0
    9.4938   14.7327   23.2554 O   0  0  0  0  0  0  0  0  0  0  0  0
    9.7597   12.3785   23.7753 C   0  0  0  0  0  0  0  0  0  0  0  0
   10.6793   12.6940   24.9826 C   0  0  0  0  0  0  0  0  0  0  0  0
   10.1736   12.9471   26.2730 C   0  0  0  0  0  0  0  0  0  0  0  0
   11.0019   13.1167   27.3847 C   0  0  0  0  0  0  0  0  0  0  0  0
   12.3855   13.0353   27.2199 C   0  0  0  0  0  0  0  0  0  0  0  0
   13.4449   13.1722   28.5905 Cl  0  0  0  0  0  0  0  0  0  0  0  0
   12.9362   12.8749   25.9525 C   0  0  0  0  0  0  0  0  0  0  0  0
   12.0845   12.7819   24.8476 C   0  0  0  0  0  0  0  0  0  0  0  0
   12.8881   12.9011   23.3040 Cl  0  0  0  0  0  0  0  0  0  0  0  0
   10.1703   11.0033   23.1394 C   0  0  0  0  0  0  0  0  0  0  0  0
    9.8236    9.8438   24.0781 C   0  0  0  0  0  0  0  0  0  0  0  0
    8.4261    9.7835   24.3087 O   0  0  0  0  0  0  0  0  0  0  0  0
    7.9070   10.9511   24.9197 C   0  0  0  0  0  0  0  0  0  0  0  0
    8.2324   12.2221   24.1258 C   0  0  0  0  0  0  0  0  0  0  0  0
   11.1661   14.0453   19.3432 C   0  0  0  0  0  0  0  0  0  0  0  0
   12.4683   13.7431   19.7404 C   0  0  0  0  0  0  0  0  0  0  0  0
   11.1585   14.9944   18.0666 C   0  0  0  0  0  0  0  0  0  0  0  0
  1  2  3  0
  3  2  1  6
  3  4  1  0
  4  5  1  0
  5  6  2  0
  5  7  1  0
  7  8  1  0
  8  9  2  0
  9 10  1  0
 10 11  2  0
 11 12  1  0
 11 13  1  0
 13 14  2  0
 14 15  1  0
  7 16  1  0
 16 17  1  0
 17 18  1  0
 18 19  1  0
 19 20  1  0
  3 21  1  0
 21 22  1  0
 21 23  1  0
 20  7  1  0
 14  8  1  0
M  END
>  <ref_pdb>  (35) 
x0554_0A

>  <ref_mols>  (35) 
x0310_0A,x0566_0A

>  <original SMILES>  (35) 
C#C[C@@H](NC(=O)C1(c2ccc(Cl)cc2Cl)CCOCC1)C(C)C

>  <rationale>  (35) 
-1

>  <IC50 (nM)>  (35) 
1957.8075546512036

>  <CNNaffinity>  (35) 
5.70823

$$$$
Z1128926832
     RDKit          3D

 23 25  0  0  0  0  0  0  0  0999 V2000
    8.4145   13.9993   22.5204 O   0  0  0  0  0  0  0  0  0  0  0  0
    9.3911   13.2855   22.7235 C   0  0  0  0  0  0  0  0  0  0  0  0
   10.4666   13.3921   21.8453 N   0  0  0  0  0  0  0  0  0  0  0  0
   10.5160   14.1189   20.6155 C   0  0  0  0  0  0  0  0  0  0  0  0
    9.4423   14.8987   20.1304 C   0  0  0  0  0  0  0  0  0  0  0  0
    9.4433   15.5430   18.9448 N   0  0  0  0  0  0  0  0  0  0  0  0
   10.5255   15.4312   18.1621 C   0  0  0  0  0  0  0  0  0  0  0  0
   11.6361   14.7002   18.5528 C   0  0  0  0  0  0  0  0  0  0  0  0
   11.6434   14.0623   19.7789 C   0  0  0  0  0  0  0  0  0  0  0  0
   12.7878   13.4253   20.1325 O   0  0  0  0  0  0  0  0  0  0  0  0
    9.3453   12.1613   23.8052 C   0  0  0  0  0  0  0  0  0  0  0  0
   10.3514   12.4802   24.9076 C   0  0  0  0  0  0  0  0  0  0  0  0
    9.9444   12.8759   26.1895 C   0  0  0  0  0  0  0  0  0  0  0  0
   10.8854   13.1157   27.1995 C   0  0  0  0  0  0  0  0  0  0  0  0
   12.2504   12.9521   26.9470 C   0  0  0  0  0  0  0  0  0  0  0  0
   13.5381   13.2639   28.3248 Br  0  0  0  0  0  0  0  0  0  0  0  0
   12.6687   12.5732   25.6709 C   0  0  0  0  0  0  0  0  0  0  0  0
   11.7274   12.3502   24.6594 C   0  0  0  0  0  0  0  0  0  0  0  0
    9.7296   10.7791   23.2134 C   0  0  0  0  0  0  0  0  0  0  0  0
    9.5266    9.6439   24.2293 C   0  0  0  0  0  0  0  0  0  0  0  0
    8.1560    9.6078   24.6433 O   0  0  0  0  0  0  0  0  0  0  0  0
    7.7457   10.8111   25.3020 C   0  0  0  0  0  0  0  0  0  0  0  0
    7.8957   12.0040   24.3527 C   0  0  0  0  0  0  0  0  0  0  0  0
  1  2  2  0
  2  3  1  0
  3  4  1  0
  4  5  2  0
  5  6  1  0
  6  7  2  0
  7  8  1  0
  8  9  2  0
  9 10  1  0
  2 11  1  0
 11 12  1  0
 12 13  2  0
 13 14  1  0
 14 15  2  0
 15 16  1  0
 15 17  1  0
 17 18  2  0
 11 19  1  0
 19 20  1  0
 20 21  1  0
 21 22  1  0
 22 23  1  0
  9  4  1  0
 23 11  1  0
 18 12  1  0
M  END
>  <ref_pdb>  (36) 
x0554_0A

>  <ref_mols>  (36) 
x0310_0A,x0566_0A

>  <original SMILES>  (36) 
O=C(Nc1cnccc1O)C1(c2ccc(Br)cc2)CCOCC1

>  <rationale>  (36) 
-1

>  <IC50 (nM)>  (36) 
1964.0385145726539

>  <CNNaffinity>  (36) 
5.70685

$$$$
Z812699794
     RDKit          3D

 23 24  0  0  0  0  0  0  0  0999 V2000
   10.2161   16.1253   16.2315 C   0  0  0  0  0  0  0  0  0  0  0  0
   10.6155   14.7535   17.2537 S   0  0  0  0  0  6  0  0  0  0  0  0
   12.0703   14.6897   17.2809 O   0  0  0  0  0  0  0  0  0  0  0  0
    9.7939   13.6270   16.8267 O   0  0  0  0  0  0  0  0  0  0  0  0
   10.0530   15.2972   18.8633 C   0  0  0  0  0  0  0  0  0  0  0  0
   10.0955   14.2004   19.9444 C   0  0  0  0  0  0  0  0  0  0  0  0
   11.1614   14.3493   21.0376 C   0  0  0  0  0  0  0  0  0  0  0  0
   10.9946   13.2994   22.0421 N   0  0  0  0  0  0  0  0  0  0  0  0
    9.9278   13.3643   22.9197 C   0  0  0  0  0  0  0  0  0  0  0  0
    9.2450   14.3718   22.9985 O   0  0  0  0  0  0  0  0  0  0  0  0
    9.6711   12.1424   23.8755 C   0  0  0  0  0  0  0  0  0  0  0  0
   10.5614   12.4358   25.1086 C   0  0  0  0  0  0  0  0  0  0  0  0
   10.0767   12.9055   26.3370 C   0  0  0  0  0  0  0  0  0  0  0  0
   10.9583   13.2063   27.3828 C   0  0  0  0  0  0  0  0  0  0  0  0
   12.3378   13.0360   27.2276 C   0  0  0  0  0  0  0  0  0  0  0  0
   12.8205   12.5915   25.9977 C   0  0  0  0  0  0  0  0  0  0  0  0
   14.5341   12.3944   25.7610 Cl  0  0  0  0  0  0  0  0  0  0  0  0
   11.9554   12.3271   24.9402 C   0  0  0  0  0  0  0  0  0  0  0  0
   10.0218   10.7325   23.2783 C   0  0  0  0  0  0  0  0  0  0  0  0
    9.5744    9.6162   24.2334 C   0  0  0  0  0  0  0  0  0  0  0  0
    8.1756    9.6511   24.4519 O   0  0  0  0  0  0  0  0  0  0  0  0
    7.7271   10.8659   25.0244 C   0  0  0  0  0  0  0  0  0  0  0  0
    8.1359   12.0818   24.1836 C   0  0  0  0  0  0  0  0  0  0  0  0
  1  2  1  0
  2  3  2  0
  2  4  2  0
  2  5  1  0
  5  6  1  0
  6  7  1  0
  7  8  1  0
  8  9  1  0
  9 10  2  0
  9 11  1  0
 11 12  1  0
 12 13  2  0
 13 14  1  0
 14 15  2  0
 15 16  1  0
 16 17  1  0
 16 18  2  0
 11 19  1  0
 19 20  1  0
 20 21  1  0
 21 22  1  0
 22 23  1  0
 23 11  1  0
 18 12  1  0
M  END
>  <ref_pdb>  (37) 
x0554_0A

>  <ref_mols>  (37) 
x0310_0A,x0566_0A

>  <original SMILES>  (37) 
CS(=O)(=O)CCCNC(=O)C1(c2cccc(Cl)c2)CCOCC1

>  <rationale>  (37) 
-1

>  <IC50 (nM)>  (37) 
1967.206723225266

>  <CNNaffinity>  (37) 
5.70615

$$$$
Z2804795083
     RDKit          3D

 23 24  0  0  0  0  0  0  0  0999 V2000
    9.3617   15.2547   23.9833 C   0  0  0  0  0  0  0  0  0  0  0  0
    9.3997   14.4874   22.7395 N   0  0  0  0  0  0  0  0  0  0  0  0
    8.8027   15.0654   21.5378 C   0  0  0  0  0  0  0  0  0  0  0  0
    9.6387   16.1762   20.9406 C   0  0  0  0  0  0  0  0  0  0  0  0
   11.1430   15.6399   20.2217 S   0  0  0  0  0  6  0  0  0  0  0  0
   10.7374   14.2813   19.3880 N   0  0  0  0  0  0  0  0  0  0  0  0
   12.0777   15.2519   21.2475 O   0  0  0  0  0  0  0  0  0  0  0  0
   11.5115   16.5474   19.1519 O   0  0  0  0  0  0  0  0  0  0  0  0
    9.8702   13.1910   22.6885 C   0  0  0  0  0  0  0  0  0  0  0  0
   10.5161   12.8367   21.7084 O   0  0  0  0  0  0  0  0  0  0  0  0
    9.5498   12.1451   23.8415 C   0  0  0  0  0  0  0  0  0  0  0  0
   10.4857   12.5067   25.0100 C   0  0  0  0  0  0  0  0  0  0  0  0
   10.0619   12.9357   26.2787 C   0  0  0  0  0  0  0  0  0  0  0  0
   10.9900   13.1843   27.2979 C   0  0  0  0  0  0  0  0  0  0  0  0
   12.3586   13.0249   27.0670 C   0  0  0  0  0  0  0  0  0  0  0  0
   12.7845   12.6533   25.7915 C   0  0  0  0  0  0  0  0  0  0  0  0
   14.4874   12.4847   25.4696 Cl  0  0  0  0  0  0  0  0  0  0  0  0
   11.8705   12.4210   24.7637 C   0  0  0  0  0  0  0  0  0  0  0  0
    9.8621   10.6860   23.3185 C   0  0  0  0  0  0  0  0  0  0  0  0
    9.4556    9.6181   24.3353 C   0  0  0  0  0  0  0  0  0  0  0  0
    8.0717    9.6850   24.6294 O   0  0  0  0  0  0  0  0  0  0  0  0
    7.6646   10.9384   25.1470 C   0  0  0  0  0  0  0  0  0  0  0  0
    8.0208   12.0968   24.1967 C   0  0  0  0  0  0  0  0  0  0  0  0
  1  2  1  0
  2  3  1  0
  3  4  1  0
  4  5  1  0
  5  6  1  0
  5  7  2  0
  5  8  2  0
  2  9  1  0
  9 10  2  0
  9 11  1  0
 11 12  1  0
 12 13  2  0
 13 14  1  0
 14 15  2  0
 15 16  1  0
 16 17  1  0
 16 18  2  0
 11 19  1  0
 19 20  1  0
 20 21  1  0
 21 22  1  0
 22 23  1  0
 23 11  1  0
 18 12  1  0
M  END
>  <ref_pdb>  (38) 
x0554_0A

>  <ref_mols>  (38) 
x0310_0A,x0566_0A

>  <original SMILES>  (38) 
CN(CCS(N)(=O)=O)C(=O)C1(c2cccc(Cl)c2)CCOCC1

>  <rationale>  (38) 
-1

>  <IC50 (nM)>  (38) 
1969.1554419671397

>  <CNNaffinity>  (38) 
5.70572

$$$$
Z3139179718
     RDKit          3D

 23 25  0  0  0  0  0  0  0  0999 V2000
    8.7593   14.9921   17.9077 N   0  0  0  0  0  0  0  0  0  0  0  0
    9.8791   15.3279   18.7863 C   0  0  2  0  0  0  0  0  0  0  0  0
   11.1664   15.3059   17.9727 C   0  0  0  0  0  0  0  0  0  0  0  0
   12.3941   15.4844   18.8803 C   0  0  0  0  0  0  0  0  0  0  0  0
   12.4189   14.4623   20.0300 C   0  0  0  0  0  0  0  0  0  0  0  0
   11.1080   14.5229   20.8118 C   0  0  2  0  0  0  0  0  0  0  0  0
   11.0387   13.5014   21.8471 N   0  0  0  0  0  0  0  0  0  0  0  0
    9.9046   13.3850   22.6403 C   0  0  0  0  0  0  0  0  0  0  0  0
    9.0710   14.2840   22.5471 O   0  0  0  0  0  0  0  0  0  0  0  0
    9.6725   12.2215   23.6462 C   0  0  0  0  0  0  0  0  0  0  0  0
   10.5857   12.5080   24.8346 C   0  0  0  0  0  0  0  0  0  0  0  0
   10.0639   12.8691   26.0820 C   0  0  0  0  0  0  0  0  0  0  0  0
   10.9066   13.1184   27.1689 C   0  0  0  0  0  0  0  0  0  0  0  0
   12.2923   13.0137   27.0175 C   0  0  0  0  0  0  0  0  0  0  0  0
   12.8396   12.6856   25.7747 C   0  0  0  0  0  0  0  0  0  0  0  0
   14.7396   12.5832   25.5646 Br  0  0  0  0  0  0  0  0  0  0  0  0
   11.9847   12.4444   24.6909 C   0  0  0  0  0  0  0  0  0  0  0  0
   10.0205   10.8124   23.0961 C   0  0  0  0  0  0  0  0  0  0  0  0
    9.6487    9.7140   24.1086 C   0  0  0  0  0  0  0  0  0  0  0  0
    8.2500    9.7677   24.4232 O   0  0  0  0  0  0  0  0  0  0  0  0
    7.8516   11.0165   25.0011 C   0  0  0  0  0  0  0  0  0  0  0  0
    8.1607   12.1564   24.0285 C   0  0  0  0  0  0  0  0  0  0  0  0
    9.9550   14.2658   19.8644 C   0  0  0  0  0  0  0  0  0  0  0  0
  2  1  1  6
  2  3  1  0
  3  4  1  0
  4  5  1  0
  5  6  1  0
  6  7  1  1
  7  8  1  0
  8  9  2  0
  8 10  1  0
 10 11  1  0
 11 12  2  0
 12 13  1  0
 13 14  2  0
 14 15  1  0
 15 16  1  0
 15 17  2  0
 10 18  1  0
 18 19  1  0
 19 20  1  0
 20 21  1  0
 21 22  1  0
  6 23  1  0
 23  2  1  0
 22 10  1  0
 17 11  1  0
M  END
>  <ref_pdb>  (39) 
x0554_0A

>  <ref_mols>  (39) 
x0310_0A,x0566_0A

>  <original SMILES>  (39) 
N[C@@H]1CCC[C@H](NC(=O)C2(c3cccc(Br)c3)CCOCC2)C1

>  <rationale>  (39) 
-1

>  <IC50 (nM)>  (39) 
1976.559989885744

>  <CNNaffinity>  (39) 
5.70409

$$$$
Z1190490525
     RDKit          3D

 23 25  0  0  0  0  0  0  0  0999 V2000
    9.0808   14.3890   22.9015 O   0  0  0  0  0  0  0  0  0  0  0  0
    9.6714   13.3472   22.7321 C   0  0  0  0  0  0  0  0  0  0  0  0
   10.5432   13.1845   21.6765 N   0  0  0  0  0  0  0  0  0  0  0  0
   10.5067   13.9057   20.4912 C   0  0  0  0  0  0  0  0  0  0  0  0
   11.6813   13.9225   19.7036 C   0  0  0  0  0  0  0  0  0  0  0  0
   11.6280   14.5452   18.4752 C   0  0  0  0  0  0  0  0  0  0  0  0
   10.3885   15.1359   18.1155 C   0  0  0  0  0  0  0  0  0  0  0  0
   10.2195   15.9092   16.5788 Cl  0  0  0  0  0  0  0  0  0  0  0  0
    9.3274   15.1218   18.9049 N   0  0  0  0  0  0  0  0  0  0  0  0
    9.3874   14.5074   20.1030 N   0  0  0  0  0  0  0  0  0  0  0  0
    9.5275   12.1357   23.7334 C   0  0  0  0  0  0  0  0  0  0  0  0
   10.4931   12.4733   24.8937 C   0  0  0  0  0  0  0  0  0  0  0  0
   10.0534   13.0286   26.1051 C   0  0  0  0  0  0  0  0  0  0  0  0
   10.9726   13.2859   27.1274 C   0  0  0  0  0  0  0  0  0  0  0  0
   10.4062   13.9520   28.6331 Cl  0  0  0  0  0  0  0  0  0  0  0  0
   12.3366   13.0349   26.9683 C   0  0  0  0  0  0  0  0  0  0  0  0
   12.7864   12.5471   25.7377 C   0  0  0  0  0  0  0  0  0  0  0  0
   11.8776   12.3000   24.7064 C   0  0  0  0  0  0  0  0  0  0  0  0
    9.8531   10.7100   23.1563 C   0  0  0  0  0  0  0  0  0  0  0  0
    9.5005    9.6245   24.1821 C   0  0  0  0  0  0  0  0  0  0  0  0
    8.1245    9.6497   24.5158 O   0  0  0  0  0  0  0  0  0  0  0  0
    7.6987   10.8821   25.0692 C   0  0  0  0  0  0  0  0  0  0  0  0
    8.0156   12.0593   24.1398 C   0  0  0  0  0  0  0  0  0  0  0  0
  1  2  2  0
  2  3  1  0
  3  4  1  0
  4  5  2  0
  5  6  1  0
  6  7  2  0
  7  8  1  0
  7  9  1  0
  9 10  2  0
  2 11  1  0
 11 12  1  0
 12 13  2  0
 13 14  1  0
 14 15  1  0
 14 16  2  0
 16 17  1  0
 17 18  2  0
 11 19  1  0
 19 20  1  0
 20 21  1  0
 21 22  1  0
 22 23  1  0
 10  4  1  0
 23 11  1  0
 18 12  1  0
M  END
>  <ref_pdb>  (40) 
x0554_0A

>  <ref_mols>  (40) 
x0310_0A,x0566_0A

>  <original SMILES>  (40) 
O=C(Nc1ccc(Cl)nn1)C1(c2cccc(Cl)c2)CCOCC1

>  <rationale>  (40) 
-1

>  <IC50 (nM)>  (40) 
2003.3646212026852

>  <CNNaffinity>  (40) 
5.69824

$$$$
Z816222520
     RDKit          3D

 22 24  0  0  0  0  0  0  0  0999 V2000
   12.8127   13.1399   19.6205 O   0  0  0  0  0  0  0  0  0  0  0  0
   11.9205   13.9656   19.6456 C   0  0  0  0  0  0  0  0  0  0  0  0
   11.0269   14.1009   20.6646 N   0  0  0  0  0  0  0  0  0  0  0  0
   10.8938   13.2350   21.7773 N   0  0  0  0  0  0  0  0  0  0  0  0
    9.7202   13.2289   22.5258 C   0  0  0  0  0  0  0  0  0  0  0  0
    8.8547   14.0620   22.3158 O   0  0  0  0  0  0  0  0  0  0  0  0
    9.5774   12.1285   23.6579 C   0  0  0  0  0  0  0  0  0  0  0  0
   10.5260   12.5019   24.8318 C   0  0  0  0  0  0  0  0  0  0  0  0
   10.0820   12.9627   26.0844 C   0  0  0  0  0  0  0  0  0  0  0  0
   10.9710   13.1691   27.1457 C   0  0  0  0  0  0  0  0  0  0  0  0
   12.3329   12.9376   26.9562 C   0  0  0  0  0  0  0  0  0  0  0  0
   13.4420   13.1677   28.2755 Cl  0  0  0  0  0  0  0  0  0  0  0  0
   12.8165   12.5333   25.7113 C   0  0  0  0  0  0  0  0  0  0  0  0
   11.9161   12.3517   24.6584 C   0  0  0  0  0  0  0  0  0  0  0  0
    9.9022   10.6686   23.1523 C   0  0  0  0  0  0  0  0  0  0  0  0
    9.5069    9.6313   24.2154 C   0  0  0  0  0  0  0  0  0  0  0  0
    8.1222    9.6837   24.5067 O   0  0  0  0  0  0  0  0  0  0  0  0
    7.7006   10.9343   25.0174 C   0  0  0  0  0  0  0  0  0  0  0  0
    8.0606   12.0857   24.0704 C   0  0  0  0  0  0  0  0  0  0  0  0
   11.7211   14.8998   18.4750 C   0  0  0  0  0  0  0  0  0  0  0  0
   10.4013   15.4378   17.9615 C   0  0  0  0  0  0  0  0  0  0  0  0
   11.4069   16.3768   18.5408 C   0  0  0  0  0  0  0  0  0  0  0  0
  1  2  2  0
  2  3  1  0
  3  4  1  0
  4  5  1  0
  5  6  2  0
  5  7  1  0
  7  8  1  0
  8  9  2  0
  9 10  1  0
 10 11  2  0
 11 12  1  0
 11 13  1  0
 13 14  2  0
  7 15  1  0
 15 16  1  0
 16 17  1  0
 17 18  1  0
 18 19  1  0
  2 20  1  0
 20 21  1  0
 21 22  1  0
 19  7  1  0
 22 20  1  0
 14  8  1  0
M  END
>  <ref_pdb>  (41) 
x0554_0A

>  <ref_mols>  (41) 
x0310_0A,x0566_0A

>  <original SMILES>  (41) 
O=C(NNC(=O)C1(c2ccc(Cl)cc2)CCOCC1)C1CC1

>  <rationale>  (41) 
-1

>  <IC50 (nM)>  (41) 
2005.3491580274433

>  <CNNaffinity>  (41) 
5.69781

$$$$
Z1698992975
     RDKit          3D

 23 25  0  0  0  0  0  0  0  0999 V2000
    9.2034   14.5313   22.8883 O   0  0  0  0  0  0  0  0  0  0  0  0
    9.6930   13.4300   22.7489 C   0  0  0  0  0  0  0  0  0  0  0  0
   10.4441   13.0868   21.6367 N   0  0  0  0  0  0  0  0  0  0  0  0
   11.1329   13.9304   20.7090 C   0  0  0  0  0  0  0  0  0  0  0  0
   10.9907   13.7801   19.3167 C   0  0  0  0  0  0  0  0  0  0  0  0
   11.6569   14.5146   18.4238 N   0  0  0  0  0  0  0  0  0  0  0  0
   12.5309   15.3964   18.9107 C   0  0  0  0  0  0  0  0  0  0  0  0
   12.7736   15.6251   20.2000 N   0  0  0  0  0  0  0  0  0  0  0  0
   12.0808   14.8949   21.0841 C   0  0  0  0  0  0  0  0  0  0  0  0
    9.5219   12.2866   23.8382 C   0  0  0  0  0  0  0  0  0  0  0  0
   10.4814   12.6414   25.0023 C   0  0  0  0  0  0  0  0  0  0  0  0
   10.0549   12.9294   26.3093 C   0  0  0  0  0  0  0  0  0  0  0  0
   10.9565   13.1451   27.3550 C   0  0  0  0  0  0  0  0  0  0  0  0
   12.3211   13.0578   27.0975 C   0  0  0  0  0  0  0  0  0  0  0  0
   13.1906   13.2025   28.1094 F   0  0  0  0  0  0  0  0  0  0  0  0
   12.8073   12.8270   25.8154 C   0  0  0  0  0  0  0  0  0  0  0  0
   11.8727   12.6733   24.7964 C   0  0  0  0  0  0  0  0  0  0  0  0
   12.3555   12.5813   23.5302 F   0  0  0  0  0  0  0  0  0  0  0  0
    9.8550   10.8453   23.3032 C   0  0  0  0  0  0  0  0  0  0  0  0
    9.4595    9.7614   24.3061 C   0  0  0  0  0  0  0  0  0  0  0  0
    8.0674    9.7991   24.5599 O   0  0  0  0  0  0  0  0  0  0  0  0
    7.6420   11.0203   25.1374 C   0  0  0  0  0  0  0  0  0  0  0  0
    8.0117   12.2403   24.2715 C   0  0  0  0  0  0  0  0  0  0  0  0
  1  2  2  0
  2  3  1  0
  3  4  1  0
  4  5  2  0
  5  6  1  0
  6  7  2  0
  7  8  1  0
  8  9  2  0
  2 10  1  0
 10 11  1  0
 11 12  2  0
 12 13  1  0
 13 14  2  0
 14 15  1  0
 14 16  1  0
 16 17  2  0
 17 18  1  0
 10 19  1  0
 19 20  1  0
 20 21  1  0
 21 22  1  0
 22 23  1  0
  9  4  1  0
 23 10  1  0
 17 11  1  0
M  END
>  <ref_pdb>  (42) 
x0554_0A

>  <ref_mols>  (42) 
x0310_0A,x0566_0A

>  <original SMILES>  (42) 
O=C(Nc1cncnc1)C1(c2ccc(F)cc2F)CCOCC1

>  <rationale>  (42) 
-1

>  <IC50 (nM)>  (42) 
2009.6480221695208

>  <CNNaffinity>  (42) 
5.69688

$$$$
Z3054662529
     RDKit          3D

 22 23  0  0  0  0  0  0  0  0999 V2000
   10.4884   15.8739   16.4049 C   0  0  0  0  0  0  0  0  0  0  0  0
   10.3499   15.0510   17.6891 C   0  0  0  0  0  0  0  0  0  0  0  0
   11.6527   15.0646   18.5181 C   0  0  0  0  0  0  0  0  0  0  0  0
   11.8373   13.9739   19.5746 C   0  0  0  0  0  0  0  0  0  0  0  0
   12.7913   13.2206   19.5750 O   0  0  0  0  0  0  0  0  0  0  0  0
   10.8212   13.9633   20.5008 N   0  0  0  0  0  0  0  0  0  0  0  0
   10.8302   13.2578   21.7448 N   0  0  0  0  0  0  0  0  0  0  0  0
    9.6833   13.2851   22.5453 C   0  0  0  0  0  0  0  0  0  0  0  0
    8.8389   14.1497   22.3929 O   0  0  0  0  0  0  0  0  0  0  0  0
    9.5632   12.1595   23.6544 C   0  0  0  0  0  0  0  0  0  0  0  0
   10.5030   12.5492   24.8249 C   0  0  0  0  0  0  0  0  0  0  0  0
   10.0451   12.9984   26.0737 C   0  0  0  0  0  0  0  0  0  0  0  0
   10.9358   13.2121   27.1310 C   0  0  0  0  0  0  0  0  0  0  0  0
   12.3083   13.0180   26.9599 C   0  0  0  0  0  0  0  0  0  0  0  0
   12.7740   12.6465   25.6971 C   0  0  0  0  0  0  0  0  0  0  0  0
   14.4871   12.4503   25.4485 Cl  0  0  0  0  0  0  0  0  0  0  0  0
   11.8964   12.4378   24.6335 C   0  0  0  0  0  0  0  0  0  0  0  0
    9.9403   10.7117   23.1477 C   0  0  0  0  0  0  0  0  0  0  0  0
    9.5617    9.6552   24.1955 C   0  0  0  0  0  0  0  0  0  0  0  0
    8.1704    9.6625   24.4585 O   0  0  0  0  0  0  0  0  0  0  0  0
    7.7083   10.8952   24.9760 C   0  0  0  0  0  0  0  0  0  0  0  0
    8.0480   12.0687   24.0535 C   0  0  0  0  0  0  0  0  0  0  0  0
  1  2  1  0
  2  3  1  0
  3  4  1  0
  4  5  2  0
  4  6  1  0
  6  7  1  0
  7  8  1  0
  8  9  2  0
  8 10  1  0
 10 11  1  0
 11 12  2  0
 12 13  1  0
 13 14  2  0
 14 15  1  0
 15 16  1  0
 15 17  2  0
 10 18  1  0
 18 19  1  0
 19 20  1  0
 20 21  1  0
 21 22  1  0
 22 10  1  0
 17 11  1  0
M  END
>  <ref_pdb>  (43) 
x0554_0A

>  <ref_mols>  (43) 
x0310_0A,x0566_0A

>  <original SMILES>  (43) 
CCCC(=O)NNC(=O)C1(c2cccc(Cl)c2)CCOCC1

>  <rationale>  (43) 
-1

>  <IC50 (nM)>  (43) 
2012.519050083967

>  <CNNaffinity>  (43) 
5.69626

$$$$
Z2803920189
     RDKit          3D

 23 25  0  0  0  0  0  0  0  0999 V2000
   13.4379   13.3337   28.2451 C   0  0  0  0  0  0  0  0  0  0  0  0
   12.4764   13.0450   27.1189 C   0  0  0  0  0  0  0  0  0  0  0  0
   11.0946   13.2254   27.2706 C   0  0  0  0  0  0  0  0  0  0  0  0
   10.2027   12.9778   26.2179 C   0  0  0  0  0  0  0  0  0  0  0  0
   10.6757   12.5491   24.9719 C   0  0  0  0  0  0  0  0  0  0  0  0
    9.7812   12.2874   23.7385 C   0  0  0  0  0  0  0  0  0  0  0  0
   10.0745   13.5154   22.7984 C   0  0  0  0  0  0  0  0  0  0  0  0
    9.4543   14.5554   22.9021 O   0  0  0  0  0  0  0  0  0  0  0  0
   11.1051   13.3825   21.8685 N   0  0  0  0  0  0  0  0  0  0  0  0
   11.1568   14.3136   20.7272 C   0  0  2  0  0  0  0  0  0  0  0  0
    9.9745   14.0002   19.8047 C   0  0  0  0  0  0  0  0  0  0  0  0
   10.0000   14.6503   18.4026 C   0  0  0  0  0  0  0  0  0  0  0  0
   11.0256   15.7738   18.3526 C   0  0  0  0  0  0  0  0  0  0  0  0
   12.4078   15.2018   18.6921 C   0  0  0  0  0  0  0  0  0  0  0  0
   12.4827   14.2606   19.9182 C   0  0  2  0  0  0  0  0  0  0  0  0
   12.7810   12.9690   19.3848 O   0  0  0  0  0  0  0  0  0  0  0  0
   10.1265   10.8846   23.1197 C   0  0  0  0  0  0  0  0  0  0  0  0
    9.6658    9.7566   24.0448 C   0  0  0  0  0  0  0  0  0  0  0  0
    8.2606    9.7923   24.2284 O   0  0  0  0  0  0  0  0  0  0  0  0
    7.8041   10.9943   24.8246 C   0  0  0  0  0  0  0  0  0  0  0  0
    8.2382   12.2307   24.0230 C   0  0  0  0  0  0  0  0  0  0  0  0
   12.0673   12.4286   24.8050 C   0  0  0  0  0  0  0  0  0  0  0  0
   12.9486   12.6335   25.8626 C   0  0  0  0  0  0  0  0  0  0  0  0
  1  2  1  0
  2  3  2  0
  3  4  1  0
  4  5  2  0
  5  6  1  0
  6  7  1  0
  7  8  2  0
  7  9  1  0
 10  9  1  1
 10 11  1  0
 11 12  1  0
 12 13  1  0
 13 14  1  0
 14 15  1  0
 15 16  1  6
  6 17  1  0
 17 18  1  0
 18 19  1  0
 19 20  1  0
 20 21  1  0
  5 22  1  0
 22 23  2  0
 23  2  1  0
 21  6  1  0
 15 10  1  0
M  END
>  <ref_pdb>  (44) 
x0554_0A

>  <ref_mols>  (44) 
x0310_0A,x0566_0A

>  <original SMILES>  (44) 
Cc1ccc(C2(C(=O)N[C@@H]3CCCC[C@@H]3O)CCOCC2)cc1

>  <rationale>  (44) 
-1

>  <IC50 (nM)>  (44) 
2015.5334029191988

>  <CNNaffinity>  (44) 
5.69561

$$$$
Z3596685237
     RDKit          3D

 23 25  0  0  0  0  0  0  0  0999 V2000
   12.5332   16.2900   17.1758 C   0  0  0  0  0  0  0  0  0  0  0  0
   12.2799   15.5290   18.0731 C   0  0  0  0  0  0  0  0  0  0  0  0
   11.9224   14.6188   19.1579 C   0  0  2  0  0  0  0  0  0  0  0  0
   10.4720   14.0523   19.1327 C   0  0  0  0  0  0  0  0  0  0  0  0
   10.2206   14.5531   20.5665 C   0  0  1  0  0  0  0  0  0  0  0  0
   10.1131   13.4775   21.5185 N   0  0  0  0  0  0  0  0  0  0  0  0
    9.5184   13.6007   22.7422 C   0  0  0  0  0  0  0  0  0  0  0  0
    8.9320   14.6221   23.0530 O   0  0  0  0  0  0  0  0  0  0  0  0
    9.5622   12.3703   23.7318 C   0  0  0  0  0  0  0  0  0  0  0  0
   10.5462   12.7430   24.8791 C   0  0  0  0  0  0  0  0  0  0  0  0
   10.0874   12.9978   26.1875 C   0  0  0  0  0  0  0  0  0  0  0  0
   10.9457   13.1529   27.2781 C   0  0  0  0  0  0  0  0  0  0  0  0
   12.3225   13.0607   27.0750 C   0  0  0  0  0  0  0  0  0  0  0  0
   13.4161   13.1535   28.4201 Cl  0  0  0  0  0  0  0  0  0  0  0  0
   12.8360   12.9108   25.7902 C   0  0  0  0  0  0  0  0  0  0  0  0
   11.9522   12.8061   24.7088 C   0  0  0  0  0  0  0  0  0  0  0  0
   12.7347   12.8574   23.1478 Cl  0  0  0  0  0  0  0  0  0  0  0  0
    9.9748   10.9957   23.0992 C   0  0  0  0  0  0  0  0  0  0  0  0
    9.7580    9.8402   24.0772 C   0  0  0  0  0  0  0  0  0  0  0  0
    8.3898    9.7146   24.4155 O   0  0  0  0  0  0  0  0  0  0  0  0
    7.8605   10.8672   25.0444 C   0  0  0  0  0  0  0  0  0  0  0  0
    8.0706   12.1357   24.2012 C   0  0  0  0  0  0  0  0  0  0  0  0
   11.6023   15.2626   20.5418 C   0  0  0  0  0  0  0  0  0  0  0  0
  1  2  3  0
  3  2  1  6
  3  4  1  0
  4  5  1  0
  5  6  1  1
  6  7  1  0
  7  8  2  0
  7  9  1  0
  9 10  1  0
 10 11  2  0
 11 12  1  0
 12 13  2  0
 13 14  1  0
 13 15  1  0
 15 16  2  0
 16 17  1  0
  9 18  1  0
 18 19  1  0
 19 20  1  0
 20 21  1  0
 21 22  1  0
  5 23  1  0
 23  3  1  0
 22  9  1  0
 16 10  1  0
M  END
>  <ref_pdb>  (45) 
x0554_0A

>  <ref_mols>  (45) 
x0310_0A,x0566_0A

>  <original SMILES>  (45) 
C#C[C@H]1C[C@H](NC(=O)C2(c3ccc(Cl)cc3Cl)CCOCC2)C1

>  <rationale>  (45) 
-1

>  <IC50 (nM)>  (45) 
2016.0903923267442

>  <CNNaffinity>  (45) 
5.69549

$$$$
Z1229824983
     RDKit          3D

 23 25  0  0  0  0  0  0  0  0999 V2000
   10.4738   15.2277   16.2235 C   0  0  0  0  0  0  0  0  0  0  0  0
   11.4403   15.0844   17.4102 C   0  0  0  0  0  0  0  0  0  0  0  0
   12.3837   16.2999   17.4907 C   0  0  0  0  0  0  0  0  0  0  0  0
   10.7676   14.8408   18.7425 C   0  0  0  0  0  0  0  0  0  0  0  0
    9.8052   15.6150   19.1688 N   0  0  0  0  0  0  0  0  0  0  0  0
    9.5220   15.0974   20.4508 O   0  0  0  0  0  0  0  0  0  0  0  0
   10.3449   14.0765   20.6081 C   0  0  0  0  0  0  0  0  0  0  0  0
   10.3718   13.2592   21.6947 N   0  0  0  0  0  0  0  0  0  0  0  0
    9.5355   13.3523   22.7962 C   0  0  0  0  0  0  0  0  0  0  0  0
    8.8772   14.3498   22.9788 O   0  0  0  0  0  0  0  0  0  0  0  0
    9.4855   12.1423   23.7889 C   0  0  0  0  0  0  0  0  0  0  0  0
   10.4469   12.5022   24.9524 C   0  0  0  0  0  0  0  0  0  0  0  0
   10.0124   12.9912   26.1949 C   0  0  0  0  0  0  0  0  0  0  0  0
   10.9225   13.2362   27.2316 C   0  0  0  0  0  0  0  0  0  0  0  0
   12.2919   13.0206   27.0380 C   0  0  0  0  0  0  0  0  0  0  0  0
   12.7467   12.6054   25.7829 C   0  0  0  0  0  0  0  0  0  0  0  0
   11.8348   12.3808   24.7502 C   0  0  0  0  0  0  0  0  0  0  0  0
    9.8837   10.7630   23.1650 C   0  0  0  0  0  0  0  0  0  0  0  0
    9.6191    9.6245   24.1539 C   0  0  0  0  0  0  0  0  0  0  0  0
    8.2463    9.5406   24.4909 O   0  0  0  0  0  0  0  0  0  0  0  0
    7.7453   10.7223   25.0900 C   0  0  0  0  0  0  0  0  0  0  0  0
    7.9854   11.9611   24.2234 C   0  0  0  0  0  0  0  0  0  0  0  0
   11.1355   13.8487   19.6061 N   0  0  0  0  0  0  0  0  0  0  0  0
  1  2  1  0
  2  3  1  0
  2  4  1  0
  4  5  2  0
  5  6  1  0
  6  7  1  0
  7  8  1  0
  8  9  1  0
  9 10  2  0
  9 11  1  0
 11 12  1  0
 12 13  2  0
 13 14  1  0
 14 15  2  0
 15 16  1  0
 16 17  2  0
 11 18  1  0
 18 19  1  0
 19 20  1  0
 20 21  1  0
 21 22  1  0
  7 23  2  0
 23  4  1  0
 22 11  1  0
 17 12  1  0
M  END
>  <ref_pdb>  (46) 
x0554_0A

>  <ref_mols>  (46) 
x0310_0A,x0566_0A

>  <original SMILES>  (46) 
CC(C)c1noc(NC(=O)C2(c3ccccc3)CCOCC2)n1

>  <rationale>  (46) 
-1

>  <IC50 (nM)>  (46) 
2019.4820624044103

>  <CNNaffinity>  (46) 
5.69476

$$$$
Z2999352767
     RDKit          3D

 23 25  0  0  0  0  0  0  0  0999 V2000
    8.9420   15.4979   17.1334 C   0  0  0  0  0  0  0  0  0  0  0  0
    9.7823   16.1722   18.2211 C   0  0  0  0  0  0  0  0  0  0  0  0
   10.4251   15.1609   19.0746 N   0  0  0  0  0  0  0  0  0  0  0  0
   11.6906   14.7113   18.8729 N   0  0  0  0  0  0  0  0  0  0  0  0
   11.9516   13.9468   19.8630 N   0  0  0  0  0  0  0  0  0  0  0  0
   10.8303   13.9475   20.6591 C   0  0  0  0  0  0  0  0  0  0  0  0
   10.7468   13.2145   21.8171 N   0  0  0  0  0  0  0  0  0  0  0  0
    9.6151   13.2049   22.6013 C   0  0  0  0  0  0  0  0  0  0  0  0
    8.7483   14.0369   22.3603 O   0  0  0  0  0  0  0  0  0  0  0  0
    9.4285   12.1310   23.7121 C   0  0  0  0  0  0  0  0  0  0  0  0
   10.3975   12.4487   24.8468 C   0  0  0  0  0  0  0  0  0  0  0  0
    9.9581   12.8417   26.1212 C   0  0  0  0  0  0  0  0  0  0  0  0
   10.8770   13.0882   27.1506 C   0  0  0  0  0  0  0  0  0  0  0  0
   12.2482   12.9410   26.9224 C   0  0  0  0  0  0  0  0  0  0  0  0
   13.5059   13.2875   28.3215 Br  0  0  0  0  0  0  0  0  0  0  0  0
   12.6967   12.5545   25.6569 C   0  0  0  0  0  0  0  0  0  0  0  0
   11.7779   12.3278   24.6244 C   0  0  0  0  0  0  0  0  0  0  0  0
    9.7821   10.7153   23.1767 C   0  0  0  0  0  0  0  0  0  0  0  0
    9.4954    9.6432   24.2354 C   0  0  0  0  0  0  0  0  0  0  0  0
    8.1138    9.6782   24.6119 O   0  0  0  0  0  0  0  0  0  0  0  0
    7.7379   10.9234   25.2101 C   0  0  0  0  0  0  0  0  0  0  0  0
    7.9546   12.0723   24.2164 C   0  0  0  0  0  0  0  0  0  0  0  0
    9.8609   14.6763   20.2023 N   0  0  0  0  0  0  0  0  0  0  0  0
  1  2  1  0
  2  3  1  0
  3  4  1  0
  4  5  2  0
  5  6  1  0
  6  7  1  0
  7  8  1  0
  8  9  2  0
  8 10  1  0
 10 11  1  0
 11 12  2  0
 12 13  1  0
 13 14  2  0
 14 15  1  0
 14 16  1  0
 16 17  2  0
 10 18  1  0
 18 19  1  0
 19 20  1  0
 20 21  1  0
 21 22  1  0
  6 23  2  0
 23  3  1  0
 22 10  1  0
 17 11  1  0
M  END
>  <ref_pdb>  (47) 
x0554_0A

>  <ref_mols>  (47) 
x0310_0A,x0566_0A

>  <original SMILES>  (47) 
CCn1nnc(NC(=O)C2(c3ccc(Br)cc3)CCOCC2)n1

>  <rationale>  (47) 
-1

>  <IC50 (nM)>  (47) 
2035.4948129288832

>  <CNNaffinity>  (47) 
5.69133

$$$$
Z3588667999
     RDKit          3D

 23 26  0  0  0  0  0  0  0  0999 V2000
    8.9552   14.3916   22.6443 O   0  0  0  0  0  0  0  0  0  0  0  0
    9.6288   13.3901   22.5625 C   0  0  0  0  0  0  0  0  0  0  0  0
   10.5050   13.1982   21.5219 N   0  0  0  0  0  0  0  0  0  0  0  0
   10.8476   14.1974   20.6299 C   0  0  0  0  0  0  0  0  0  0  0  0
   12.0649   14.6837   20.6265 N   0  0  0  0  0  0  0  0  0  0  0  0
   11.9897   15.5538   19.5843 N   0  0  0  0  0  0  0  0  0  0  0  0
   10.7900   15.4860   18.9841 C   0  0  0  0  0  0  0  0  0  0  0  0
   10.5356   16.3916   17.8597 C   0  0  0  0  0  0  0  0  0  0  0  0
    9.6515   15.9296   16.9230 C   0  0  0  0  0  0  0  0  0  0  0  0
    9.7595   15.9872   16.6650 C   0  0  0  0  0  0  0  0  0  0  0  0
   10.0284   14.6257   19.6587 N   0  0  0  0  0  0  0  0  0  0  0  0
    9.5323   12.2372   23.6327 C   0  0  0  0  0  0  0  0  0  0  0  0
   10.4191   12.6779   24.8287 C   0  0  0  0  0  0  0  0  0  0  0  0
    9.8959   13.1932   26.0281 C   0  0  0  0  0  0  0  0  0  0  0  0
   10.7309   13.5069   27.1069 C   0  0  0  0  0  0  0  0  0  0  0  0
   12.1161   13.3574   26.9929 C   0  0  0  0  0  0  0  0  0  0  0  0
   12.6588   12.9122   25.7842 C   0  0  0  0  0  0  0  0  0  0  0  0
   11.8189   12.5911   24.7145 C   0  0  0  0  0  0  0  0  0  0  0  0
    9.9750   10.8217   23.1128 C   0  0  0  0  0  0  0  0  0  0  0  0
    9.6884    9.7417   24.1615 C   0  0  0  0  0  0  0  0  0  0  0  0
    8.3073    9.6735   24.4698 O   0  0  0  0  0  0  0  0  0  0  0  0
    7.7845   10.8891   24.9784 C   0  0  0  0  0  0  0  0  0  0  0  0
    8.0189   12.0620   24.0148 C   0  0  0  0  0  0  0  0  0  0  0  0
  1  2  2  0
  2  3  1  0
  3  4  1  0
  4  5  2  0
  5  6  1  0
  6  7  1  0
  7  8  1  0
  8  9  1  0
  9 10  1  0
  7 11  2  0
  2 12  1  0
 12 13  1  0
 13 14  2  0
 14 15  1  0
 15 16  2  0
 16 17  1  0
 17 18  2  0
 12 19  1  0
 19 20  1  0
 20 21  1  0
 21 22  1  0
 22 23  1  0
 11  4  1  0
 23 12  1  0
 10  8  1  0
 18 13  1  0
M  END
>  <ref_pdb>  (48) 
x0554_0A

>  <ref_mols>  (48) 
x0310_0A,x0566_0A

>  <original SMILES>  (48) 
O=C(Nc1n[nH]c(C2CC2)n1)C1(c2ccccc2)CCOCC1

>  <rationale>  (48) 
-1

>  <IC50 (nM)>  (48) 
2042.443257769055

>  <CNNaffinity>  (48) 
5.68985

$$$$
Z3712613830
     RDKit          3D

 23 25  0  0  0  0  0  0  0  0999 V2000
   13.4339   13.3239   28.2295 C   0  0  0  0  0  0  0  0  0  0  0  0
   12.4769   13.0292   27.1010 C   0  0  0  0  0  0  0  0  0  0  0  0
   11.0939   13.2164   27.2499 C   0  0  0  0  0  0  0  0  0  0  0  0
   10.2049   12.9665   26.1979 C   0  0  0  0  0  0  0  0  0  0  0  0
   10.6736   12.5290   24.9556 C   0  0  0  0  0  0  0  0  0  0  0  0
    9.7693   12.2701   23.7292 C   0  0  0  0  0  0  0  0  0  0  0  0
   10.0587   13.4962   22.7849 C   0  0  0  0  0  0  0  0  0  0  0  0
    9.4288   14.5302   22.8835 O   0  0  0  0  0  0  0  0  0  0  0  0
   11.1011   13.3721   21.8659 N   0  0  0  0  0  0  0  0  0  0  0  0
   11.1539   14.3076   20.7259 C   0  0  2  0  0  0  0  0  0  0  0  0
    9.9776   13.9899   19.7958 C   0  0  0  0  0  0  0  0  0  0  0  0
   10.0202   14.6224   18.3832 C   0  0  0  0  0  0  0  0  0  0  0  0
   11.0371   15.7569   18.3361 C   0  0  0  0  0  0  0  0  0  0  0  0
   12.4167   15.1787   18.6841 C   0  0  0  0  0  0  0  0  0  0  0  0
   12.4836   14.2540   19.9245 C   0  0  2  0  0  0  0  0  0  0  0  0
   12.7846   12.9550   19.4098 O   0  0  0  0  0  0  0  0  0  0  0  0
   10.1087   10.8618   23.1241 C   0  0  0  0  0  0  0  0  0  0  0  0
    9.6415    9.7426   24.0604 C   0  0  0  0  0  0  0  0  0  0  0  0
    8.2374    9.7818   24.2500 O   0  0  0  0  0  0  0  0  0  0  0  0
    7.7889   10.9912   24.8375 C   0  0  0  0  0  0  0  0  0  0  0  0
    8.2245   12.2183   24.0196 C   0  0  0  0  0  0  0  0  0  0  0  0
   12.0672   12.4041   24.7899 C   0  0  0  0  0  0  0  0  0  0  0  0
   12.9485   12.6082   25.8471 C   0  0  0  0  0  0  0  0  0  0  0  0
  1  2  1  0
  2  3  2  0
  3  4  1  0
  4  5  2  0
  5  6  1  0
  6  7  1  0
  7  8  2  0
  7  9  1  0
 10  9  1  1
 10 11  1  0
 11 12  1  0
 12 13  1  0
 13 14  1  0
 14 15  1  0
 15 16  1  6
  6 17  1  0
 17 18  1  0
 18 19  1  0
 19 20  1  0
 20 21  1  0
  5 22  1  0
 22 23  2  0
 23  2  1  0
 21  6  1  0
 15 10  1  0
M  END
>  <ref_pdb>  (49) 
x0554_0A

>  <ref_mols>  (49) 
x0310_0A,x0566_0A

>  <original SMILES>  (49) 
Cc1ccc(C2(C(=O)N[C@@H]3CCCC[C@@H]3O)CCOCC2)cc1

>  <rationale>  (49) 
-1

>  <IC50 (nM)>  (49) 
2052.863154888009

>  <CNNaffinity>  (49) 
5.68764

$$$$
Z1536566815
     RDKit          3D

 23 25  0  0  0  0  0  0  0  0999 V2000
   11.0545   14.7974   17.0120 C   0  0  0  0  0  0  0  0  0  0  0  0
   10.6853   14.6115   18.4397 C   0  0  0  0  0  0  0  0  0  0  0  0
   11.2586   13.9055   19.4407 C   0  0  0  0  0  0  0  0  0  0  0  0
   10.3058   13.9920   20.4811 C   0  0  0  0  0  0  0  0  0  0  0  0
   10.4084   13.3022   21.6615 N   0  0  0  0  0  0  0  0  0  0  0  0
    9.5015   13.4019   22.6896 C   0  0  0  0  0  0  0  0  0  0  0  0
    8.7697   14.3586   22.8033 O   0  0  0  0  0  0  0  0  0  0  0  0
    9.4511   12.2109   23.7448 C   0  0  0  0  0  0  0  0  0  0  0  0
   10.4254   12.5669   24.8938 C   0  0  0  0  0  0  0  0  0  0  0  0
   10.0336   12.9278   26.1944 C   0  0  0  0  0  0  0  0  0  0  0  0
   10.9638   13.1019   27.2258 C   0  0  0  0  0  0  0  0  0  0  0  0
   12.3170   12.9394   26.9480 C   0  0  0  0  0  0  0  0  0  0  0  0
   13.2123   13.0620   27.9377 F   0  0  0  0  0  0  0  0  0  0  0  0
   12.7747   12.6660   25.6655 C   0  0  0  0  0  0  0  0  0  0  0  0
   11.8127   12.5180   24.6772 C   0  0  0  0  0  0  0  0  0  0  0  0
   12.2732   12.3536   23.4104 F   0  0  0  0  0  0  0  0  0  0  0  0
    9.8190   10.7931   23.1720 C   0  0  0  0  0  0  0  0  0  0  0  0
    9.4891    9.6916   24.1879 C   0  0  0  0  0  0  0  0  0  0  0  0
    8.1121    9.6765   24.5124 O   0  0  0  0  0  0  0  0  0  0  0  0
    7.6620   10.8868   25.0916 C   0  0  0  0  0  0  0  0  0  0  0  0
    7.9498   12.0925   24.1930 C   0  0  0  0  0  0  0  0  0  0  0  0
    9.2686   14.7174   20.1565 N   0  0  0  0  0  0  0  0  0  0  0  0
    9.5176   15.1188   18.8555 O   0  0  0  0  0  0  0  0  0  0  0  0
  1  2  1  0
  2  3  2  0
  3  4  1  0
  4  5  1  0
  5  6  1  0
  6  7  2  0
  6  8  1  0
  8  9  1  0
  9 10  2  0
 10 11  1  0
 11 12  2  0
 12 13  1  0
 12 14  1  0
 14 15  2  0
 15 16  1  0
  8 17  1  0
 17 18  1  0
 18 19  1  0
 19 20  1  0
 20 21  1  0
  4 22  2  0
 22 23  1  0
 23  2  1  0
 21  8  1  0
 15  9  1  0
M  END
>  <ref_pdb>  (50) 
x0554_0A

>  <ref_mols>  (50) 
x0310_0A,x0566_0A

>  <original SMILES>  (50) 
Cc1cc(NC(=O)C2(c3ccc(F)cc3F)CCOCC2)no1

>  <rationale>  (50) 
-1

>  <IC50 (nM)>  (50) 
2055.559252275266

>  <CNNaffinity>  (50) 
5.68707

$$$$
Z4331006164
     RDKit          3D

 23 25  0  0  0  0  0  0  0  0999 V2000
    8.8516   14.1084   22.5423 O   0  0  0  0  0  0  0  0  0  0  0  0
    9.6666   13.1973   22.6258 C   0  0  0  0  0  0  0  0  0  0  0  0
   10.6912   13.1843   21.6990 N   0  0  0  0  0  0  0  0  0  0  0  0
   10.6212   13.9325   20.5364 C   0  0  0  0  0  0  0  0  0  0  0  0
   11.7010   13.8693   19.6610 C   0  0  0  0  0  0  0  0  0  0  0  0
   11.5806   14.4692   18.4032 C   0  0  0  0  0  0  0  0  0  0  0  0
   10.3870   15.1279   18.0772 C   0  0  0  0  0  0  0  0  0  0  0  0
   10.1501   15.8661   16.3199 Br  0  0  0  0  0  0  0  0  0  0  0  0
    9.3940   15.2093   18.9903 N   0  0  0  0  0  0  0  0  0  0  0  0
    9.5103   14.6166   20.1959 N   0  0  0  0  0  0  0  0  0  0  0  0
    9.4944   12.0857   23.7012 C   0  0  0  0  0  0  0  0  0  0  0  0
   10.4504   12.4128   24.8436 C   0  0  0  0  0  0  0  0  0  0  0  0
   10.0042   12.9015   26.0812 C   0  0  0  0  0  0  0  0  0  0  0  0
   10.9081   13.2102   27.1033 C   0  0  0  0  0  0  0  0  0  0  0  0
   10.3376   13.8943   28.6017 Cl  0  0  0  0  0  0  0  0  0  0  0  0
   12.2728   12.9818   26.9127 C   0  0  0  0  0  0  0  0  0  0  0  0
   12.7363   12.4923   25.6887 C   0  0  0  0  0  0  0  0  0  0  0  0
   11.8274   12.2452   24.6552 C   0  0  0  0  0  0  0  0  0  0  0  0
    9.8242   10.6527   23.1832 C   0  0  0  0  0  0  0  0  0  0  0  0
    9.4807    9.5959   24.2450 C   0  0  0  0  0  0  0  0  0  0  0  0
    8.0903    9.6698   24.5829 O   0  0  0  0  0  0  0  0  0  0  0  0
    7.7260   10.9293   25.1611 C   0  0  0  0  0  0  0  0  0  0  0  0
    8.0122   12.0630   24.1736 C   0  0  0  0  0  0  0  0  0  0  0  0
  1  2  2  0
  2  3  1  0
  3  4  1  0
  4  5  2  0
  5  6  1  0
  6  7  2  0
  7  8  1  0
  7  9  1  0
  9 10  2  0
  2 11  1  0
 11 12  1  0
 12 13  2  0
 13 14  1  0
 14 15  1  0
 14 16  2  0
 16 17  1  0
 17 18  2  0
 11 19  1  0
 19 20  1  0
 20 21  1  0
 21 22  1  0
 22 23  1  0
 10  4  1  0
 23 11  1  0
 18 12  1  0
M  END
>  <ref_pdb>  (51) 
x0554_0A

>  <ref_mols>  (51) 
x0310_0A,x0566_0A

>  <original SMILES>  (51) 
O=C(Nc1ccc(Br)nn1)C1(c2cccc(Cl)c2)CCOCC1

>  <rationale>  (51) 
-1

>  <IC50 (nM)>  (51) 
2058.021938370434

>  <CNNaffinity>  (51) 
5.68655

$$$$
Z1657819744
     RDKit          3D

 23 25  0  0  0  0  0  0  0  0999 V2000
   13.3299   13.1408   28.1194 C   0  0  0  0  0  0  0  0  0  0  0  0
   12.3521   12.9505   26.9835 C   0  0  0  0  0  0  0  0  0  0  0  0
   10.9794   13.1719   27.1717 C   0  0  0  0  0  0  0  0  0  0  0  0
   10.0570   12.9583   26.1409 C   0  0  0  0  0  0  0  0  0  0  0  0
   10.4731   12.4851   24.8879 C   0  0  0  0  0  0  0  0  0  0  0  0
    9.5047   12.1475   23.7254 C   0  0  0  0  0  0  0  0  0  0  0  0
    9.6037   13.3667   22.7291 C   0  0  0  0  0  0  0  0  0  0  0  0
    9.0362   14.4092   22.9668 O   0  0  0  0  0  0  0  0  0  0  0  0
   10.3877   13.2341   21.5987 N   0  0  0  0  0  0  0  0  0  0  0  0
   10.2506   14.0764   20.5021 C   0  0  0  0  0  0  0  0  0  0  0  0
    9.2067   14.7234   20.0983 N   0  0  0  0  0  0  0  0  0  0  0  0
    9.5497   15.2959   18.8853 N   0  0  0  0  0  0  0  0  0  0  0  0
   10.7844   14.9690   18.6210 C   0  0  0  0  0  0  0  0  0  0  0  0
   11.5552   15.3382   17.3994 C   0  0  0  0  0  0  0  0  0  0  0  0
   11.2963   14.1901   19.6277 N   0  0  0  0  0  0  0  0  0  0  0  0
   12.6786   13.7943   19.8194 C   0  0  0  0  0  0  0  0  0  0  0  0
    9.8561   10.7347   23.1364 C   0  0  0  0  0  0  0  0  0  0  0  0
    9.5396    9.6377   24.1640 C   0  0  0  0  0  0  0  0  0  0  0  0
    8.1619    9.6210   24.4919 O   0  0  0  0  0  0  0  0  0  0  0  0
    7.6994   10.8337   25.0576 C   0  0  0  0  0  0  0  0  0  0  0  0
    7.9966   12.0393   24.1563 C   0  0  0  0  0  0  0  0  0  0  0  0
   11.8563   12.3555   24.6747 C   0  0  0  0  0  0  0  0  0  0  0  0
   12.7756   12.5509   25.7071 C   0  0  0  0  0  0  0  0  0  0  0  0
  1  2  1  0
  2  3  2  0
  3  4  1  0
  4  5  2  0
  5  6  1  0
  6  7  1  0
  7  8  2  0
  7  9  1  0
  9 10  1  0
 10 11  2  0
 11 12  1  0
 12 13  2  0
 13 14  1  0
 13 15  1  0
 15 16  1  0
  6 17  1  0
 17 18  1  0
 18 19  1  0
 19 20  1  0
 20 21  1  0
  5 22  1  0
 22 23  2  0
 23  2  1  0
 21  6  1  0
 15 10  1  0
M  END
>  <ref_pdb>  (52) 
x0554_0A

>  <ref_mols>  (52) 
x0310_0A,x0566_0A

>  <original SMILES>  (52) 
Cc1ccc(C2(C(=O)Nc3nnc(C)n3C)CCOCC2)cc1

>  <rationale>  (52) 
-1

>  <IC50 (nM)>  (52) 
2061.484149913189

>  <CNNaffinity>  (52) 
5.68582

$$$$
Z1274835885
     RDKit          3D

 23 25  0  0  0  0  0  0  0  0999 V2000
    9.0347   18.3230   19.4045 C   0  0  0  0  0  0  0  0  0  0  0  0
    9.5663   16.7630   18.6595 S   0  0  0  0  0  0  0  0  0  0  0  0
   10.0991   15.8980   20.1529 C   0  0  2  0  0  0  0  0  0  0  0  0
   11.4828   16.3040   20.6543 C   0  0  0  0  0  0  0  0  0  0  0  0
   11.8656   15.1697   21.6021 C   0  0  0  0  0  0  0  0  0  0  0  0
   11.2918   13.9032   20.9261 C   0  0  1  0  0  0  0  0  0  0  0  0
   10.8285   12.9211   21.8922 N   0  0  0  0  0  0  0  0  0  0  0  0
    9.7658   13.1238   22.7319 C   0  0  0  0  0  0  0  0  0  0  0  0
    9.1071   14.1503   22.6878 O   0  0  0  0  0  0  0  0  0  0  0  0
    9.5071   12.0049   23.8004 C   0  0  0  0  0  0  0  0  0  0  0  0
   10.4638   12.3711   24.9646 C   0  0  0  0  0  0  0  0  0  0  0  0
   10.0324   12.8811   26.1964 C   0  0  0  0  0  0  0  0  0  0  0  0
   10.9509   13.1500   27.2175 C   0  0  0  0  0  0  0  0  0  0  0  0
   12.3202   12.9492   27.0221 C   0  0  0  0  0  0  0  0  0  0  0  0
   12.7545   12.5132   25.7698 C   0  0  0  0  0  0  0  0  0  0  0  0
   14.4603   12.3084   25.4785 Cl  0  0  0  0  0  0  0  0  0  0  0  0
   11.8513   12.2511   24.7411 C   0  0  0  0  0  0  0  0  0  0  0  0
    9.8064   10.5529   23.2817 C   0  0  0  0  0  0  0  0  0  0  0  0
    9.4049    9.5052   24.3234 C   0  0  0  0  0  0  0  0  0  0  0  0
    8.0281    9.5826   24.6410 O   0  0  0  0  0  0  0  0  0  0  0  0
    7.6330   10.8424   25.1507 C   0  0  0  0  0  0  0  0  0  0  0  0
    7.9903   11.9860   24.1908 C   0  0  0  0  0  0  0  0  0  0  0  0
   10.1988   14.3871   19.9431 C   0  0  0  0  0  0  0  0  0  0  0  0
  1  2  1  0
  3  2  1  6
  3  4  1  0
  4  5  1  0
  5  6  1  0
  6  7  1  1
  7  8  1  0
  8  9  2  0
  8 10  1  0
 10 11  1  0
 11 12  2  0
 12 13  1  0
 13 14  2  0
 14 15  1  0
 15 16  1  0
 15 17  2  0
 10 18  1  0
 18 19  1  0
 19 20  1  0
 20 21  1  0
 21 22  1  0
  6 23  1  0
 23  3  1  0
 22 10  1  0
 17 11  1  0
M  END
>  <ref_pdb>  (53) 
x0554_0A

>  <ref_mols>  (53) 
x0310_0A,x0566_0A

>  <original SMILES>  (53) 
CS[C@@H]1CC[C@@H](NC(=O)C2(c3cccc(Cl)c3)CCOCC2)C1

>  <rationale>  (53) 
-1

>  <IC50 (nM)>  (53) 
2067.473730136296

>  <CNNaffinity>  (53) 
5.68456

$$$$
Z3638418088
     RDKit          3D

 23 25  0  0  0  0  0  0  0  0999 V2000
   13.3716   13.2625   28.0856 C   0  0  0  0  0  0  0  0  0  0  0  0
   12.3658   12.9529   27.0019 C   0  0  0  0  0  0  0  0  0  0  0  0
   10.9904   13.1551   27.1851 C   0  0  0  0  0  0  0  0  0  0  0  0
   10.0697   12.8877   26.1630 C   0  0  0  0  0  0  0  0  0  0  0  0
   10.4892   12.3998   24.9165 C   0  0  0  0  0  0  0  0  0  0  0  0
    9.5295   12.0432   23.7484 C   0  0  0  0  0  0  0  0  0  0  0  0
    9.7157   13.1707   22.6494 C   0  0  0  0  0  0  0  0  0  0  0  0
    8.9368   14.1041   22.5637 O   0  0  0  0  0  0  0  0  0  0  0  0
   10.8292   13.1145   21.8367 N   0  0  0  0  0  0  0  0  0  0  0  0
   11.0639   14.1045   20.7854 C   0  0  2  0  0  0  0  0  0  0  0  0
   10.2665   13.7671   19.5491 C   0  0  0  0  0  0  0  0  0  0  0  0
    9.9446   14.6103   18.5654 C   0  0  0  0  0  0  0  0  0  0  0  0
   10.7697   15.8385   18.2711 C   0  0  0  0  0  0  0  0  0  0  0  0
   12.2739   15.4949   18.1897 C   0  0  0  0  0  0  0  0  0  0  0  0
   12.9972   15.2774   19.5297 C   0  0  0  0  0  0  0  0  0  0  0  0
   12.5578   14.1141   20.4396 C   0  0  0  0  0  0  0  0  0  0  0  0
    9.8291   10.5859   23.2358 C   0  0  0  0  0  0  0  0  0  0  0  0
    9.4309    9.5413   24.2898 C   0  0  0  0  0  0  0  0  0  0  0  0
    8.0518    9.6069   24.6024 O   0  0  0  0  0  0  0  0  0  0  0  0
    7.6496   10.8654   25.1079 C   0  0  0  0  0  0  0  0  0  0  0  0
    8.0131   12.0078   24.1523 C   0  0  0  0  0  0  0  0  0  0  0  0
   11.8753   12.2538   24.7215 C   0  0  0  0  0  0  0  0  0  0  0  0
   12.7916   12.4953   25.7471 C   0  0  0  0  0  0  0  0  0  0  0  0
  1  2  1  0
  2  3  2  0
  3  4  1  0
  4  5  2  0
  5  6  1  0
  6  7  1  0
  7  8  2  0
  7  9  1  0
 10  9  1  1
 10 11  1  0
 11 12  2  0
 12 13  1  0
 13 14  1  0
 14 15  1  0
 15 16  1  0
  6 17  1  0
 17 18  1  0
 18 19  1  0
 19 20  1  0
 20 21  1  0
  5 22  1  0
 22 23  2  0
 23  2  1  0
 21  6  1  0
 16 10  1  0
M  END
>  <ref_pdb>  (54) 
x0554_0A

>  <ref_mols>  (54) 
x0310_0A,x0566_0A

>  <original SMILES>  (54) 
Cc1ccc(C2(C(=O)N[C@@H]3C=CCCCC3)CCOCC2)cc1

>  <rationale>  (54) 
-1

>  <IC50 (nM)>  (54) 
2070.665749626617

>  <CNNaffinity>  (54) 
5.68389

$$$$
Z804139012
     RDKit          3D

 22 24  0  0  0  0  0  0  0  0999 V2000
   11.5767   14.8578   17.3867 C   0  0  0  0  0  0  0  0  0  0  0  0
   10.8151   14.7899   18.6131 N   0  0  0  0  0  0  0  0  0  0  0  0
    9.7621   15.5614   18.9610 C   0  0  0  0  0  0  0  0  0  0  0  0
    9.3461   15.1513   20.2087 C   0  0  0  0  0  0  0  0  0  0  0  0
   10.2384   14.1098   20.5237 C   0  0  0  0  0  0  0  0  0  0  0  0
   10.3212   13.2727   21.6255 N   0  0  0  0  0  0  0  0  0  0  0  0
    9.5422   13.3793   22.7384 C   0  0  0  0  0  0  0  0  0  0  0  0
    8.8779   14.3821   22.9215 O   0  0  0  0  0  0  0  0  0  0  0  0
    9.5002   12.1814   23.7541 C   0  0  0  0  0  0  0  0  0  0  0  0
   10.4519   12.5558   24.9165 C   0  0  0  0  0  0  0  0  0  0  0  0
   10.0196   13.0043   26.1769 C   0  0  0  0  0  0  0  0  0  0  0  0
   10.9375   13.2392   27.2079 C   0  0  0  0  0  0  0  0  0  0  0  0
   12.3086   13.0556   27.0018 C   0  0  0  0  0  0  0  0  0  0  0  0
   12.7412   12.6845   25.7286 C   0  0  0  0  0  0  0  0  0  0  0  0
   14.4444   12.4998   25.4185 Cl  0  0  0  0  0  0  0  0  0  0  0  0
   11.8377   12.4607   24.6921 C   0  0  0  0  0  0  0  0  0  0  0  0
    9.9070   10.7941   23.1425 C   0  0  0  0  0  0  0  0  0  0  0  0
    9.6352    9.6574   24.1331 C   0  0  0  0  0  0  0  0  0  0  0  0
    8.2585    9.5804   24.4537 O   0  0  0  0  0  0  0  0  0  0  0  0
    7.7559   10.7602   25.0541 C   0  0  0  0  0  0  0  0  0  0  0  0
    8.0010   12.0013   24.1878 C   0  0  0  0  0  0  0  0  0  0  0  0
   11.1063   13.8775   19.5567 N   0  0  0  0  0  0  0  0  0  0  0  0
  1  2  1  0
  2  3  1  0
  3  4  2  0
  4  5  1  0
  5  6  1  0
  6  7  1  0
  7  8  2  0
  7  9  1  0
  9 10  1  0
 10 11  2  0
 11 12  1  0
 12 13  2  0
 13 14  1  0
 14 15  1  0
 14 16  2  0
  9 17  1  0
 17 18  1  0
 18 19  1  0
 19 20  1  0
 20 21  1  0
  5 22  2  0
 22  2  1  0
 21  9  1  0
 16 10  1  0
M  END
>  <ref_pdb>  (55) 
x0554_0A

>  <ref_mols>  (55) 
x0310_0A,x0566_0A

>  <original SMILES>  (55) 
Cn1ccc(NC(=O)C2(c3cccc(Cl)c3)CCOCC2)n1

>  <rationale>  (55) 
-1

>  <IC50 (nM)>  (55) 
2071.14259293189

>  <CNNaffinity>  (55) 
5.68379

$$$$
Z997958766
     RDKit          3D

 22 23  0  0  0  0  0  0  0  0999 V2000
   10.1181   14.8258   17.6319 C   0  0  0  0  0  0  0  0  0  0  0  0
   11.5065   14.9301   18.2866 C   0  0  0  0  0  0  0  0  0  0  0  0
   11.7326   16.3628   18.7827 C   0  0  0  0  0  0  0  0  0  0  0  0
   11.6857   13.9564   19.4630 C   0  0  0  0  0  0  0  0  0  0  0  0
   12.6633   13.2195   19.4790 O   0  0  0  0  0  0  0  0  0  0  0  0
   10.7762   14.0276   20.5202 N   0  0  0  0  0  0  0  0  0  0  0  0
   10.6987   13.2143   21.7352 N   0  0  0  0  0  0  0  0  0  0  0  0
    9.6044   13.2013   22.6130 C   0  0  0  0  0  0  0  0  0  0  0  0
    8.6992   14.0138   22.4197 O   0  0  0  0  0  0  0  0  0  0  0  0
    9.4631   12.1222   23.7294 C   0  0  0  0  0  0  0  0  0  0  0  0
   10.4286   12.4502   24.8665 C   0  0  0  0  0  0  0  0  0  0  0  0
    9.9784   12.8244   26.1450 C   0  0  0  0  0  0  0  0  0  0  0  0
   10.8863   13.0807   27.1793 C   0  0  0  0  0  0  0  0  0  0  0  0
   12.2603   12.9693   26.9535 C   0  0  0  0  0  0  0  0  0  0  0  0
   13.5037   13.3334   28.3583 Br  0  0  0  0  0  0  0  0  0  0  0  0
   12.7220   12.5982   25.6883 C   0  0  0  0  0  0  0  0  0  0  0  0
   11.8116   12.3579   24.6514 C   0  0  0  0  0  0  0  0  0  0  0  0
    9.7980   10.6994   23.1996 C   0  0  0  0  0  0  0  0  0  0  0  0
    9.5244    9.6284   24.2633 C   0  0  0  0  0  0  0  0  0  0  0  0
    8.1423    9.6710   24.6412 O   0  0  0  0  0  0  0  0  0  0  0  0
    7.7711   10.9205   25.2347 C   0  0  0  0  0  0  0  0  0  0  0  0
    7.9939   12.0582   24.2347 C   0  0  0  0  0  0  0  0  0  0  0  0
  1  2  1  0
  2  3  1  0
  2  4  1  0
  4  5  2  0
  4  6  1  0
  6  7  1  0
  7  8  1  0
  8  9  2  0
  8 10  1  0
 10 11  1  0
 11 12  2  0
 12 13  1  0
 13 14  2  0
 14 15  1  0
 14 16  1  0
 16 17  2  0
 10 18  1  0
 18 19  1  0
 19 20  1  0
 20 21  1  0
 21 22  1  0
 22 10  1  0
 17 11  1  0
M  END
>  <ref_pdb>  (56) 
x0554_0A

>  <ref_mols>  (56) 
x0310_0A,x0566_0A

>  <original SMILES>  (56) 
CC(C)C(=O)NNC(=O)C1(c2ccc(Br)cc2)CCOCC1

>  <rationale>  (56) 
-1

>  <IC50 (nM)>  (56) 
2095.559517227813

>  <CNNaffinity>  (56) 
5.6787

$$$$
Z4883983175
     RDKit          3D

 23 24  0  0  0  0  0  0  0  0999 V2000
    8.6710   18.0215   20.6235 C   0  0  0  0  0  0  0  0  0  0  0  0
    9.6988   17.4388   19.7598 C   0  0  0  0  0  0  0  0  0  0  0  0
   10.5326   16.9711   19.0247 C   0  0  0  0  0  0  0  0  0  0  0  0
   11.5675   16.2884   18.2336 C   0  0  0  0  0  0  0  0  0  0  0  0
   11.2863   14.7871   18.0365 C   0  0  0  0  0  0  0  0  0  0  0  0
   11.4077   13.9136   19.3025 C   0  0  0  0  0  0  0  0  0  0  0  0
   10.5155   14.3032   20.4821 C   0  0  0  0  0  0  0  0  0  0  0  0
   10.5441   13.2883   21.5307 N   0  0  0  0  0  0  0  0  0  0  0  0
    9.7115   13.3818   22.6071 C   0  0  0  0  0  0  0  0  0  0  0  0
    9.0371   14.3894   22.7613 O   0  0  0  0  0  0  0  0  0  0  0  0
    9.5984   12.2003   23.6385 C   0  0  0  0  0  0  0  0  0  0  0  0
   10.5130   12.5869   24.8273 C   0  0  0  0  0  0  0  0  0  0  0  0
   10.0338   13.0169   26.0751 C   0  0  0  0  0  0  0  0  0  0  0  0
   10.9157   13.2557   27.1366 C   0  0  0  0  0  0  0  0  0  0  0  0
   12.2937   13.1002   26.9670 C   0  0  0  0  0  0  0  0  0  0  0  0
   12.7741   12.7398   25.7078 C   0  0  0  0  0  0  0  0  0  0  0  0
   14.4879   12.5748   25.4608 Cl  0  0  0  0  0  0  0  0  0  0  0  0
   11.9060   12.5064   24.6431 C   0  0  0  0  0  0  0  0  0  0  0  0
   10.0093   10.7807   23.1074 C   0  0  0  0  0  0  0  0  0  0  0  0
    9.6640    9.7076   24.1510 C   0  0  0  0  0  0  0  0  0  0  0  0
    8.2699    9.6670   24.3989 O   0  0  0  0  0  0  0  0  0  0  0  0
    7.7574   10.8795   24.9208 C   0  0  0  0  0  0  0  0  0  0  0  0
    8.0742   12.0721   24.0082 C   0  0  0  0  0  0  0  0  0  0  0  0
  1  2  1  0
  2  3  3  0
  3  4  1  0
  4  5  1  0
  5  6  1  0
  6  7  1  0
  7  8  1  0
  8  9  1  0
  9 10  2  0
  9 11  1  0
 11 12  1  0
 12 13  2  0
 13 14  1  0
 14 15  2  0
 15 16  1  0
 16 17  1  0
 16 18  2  0
 11 19  1  0
 19 20  1  0
 20 21  1  0
 21 22  1  0
 22 23  1  0
 23 11  1  0
 18 12  1  0
M  END
>  <ref_pdb>  (57) 
x0554_0A

>  <ref_mols>  (57) 
x0310_0A,x0566_0A

>  <original SMILES>  (57) 
CC#CCCCCNC(=O)C1(c2cccc(Cl)c2)CCOCC1

>  <rationale>  (57) 
-1

>  <IC50 (nM)>  (57) 
2099.133212033976

>  <CNNaffinity>  (57) 
5.67796

$$$$
Z1030476188
     RDKit          3D

 23 25  0  0  0  0  0  0  0  0999 V2000
   12.8217   14.8131   22.3423 O   0  0  0  0  0  0  0  0  0  0  0  0
   12.1242   14.9358   21.3543 C   0  0  0  0  0  0  0  0  0  0  0  0
   12.1479   16.2463   20.5864 C   0  0  0  0  0  0  0  0  0  0  0  0
   11.2821   16.3513   19.3192 C   0  0  0  0  0  0  0  0  0  0  0  0
   11.2085   14.9911   18.6295 C   0  0  0  0  0  0  0  0  0  0  0  0
   10.5715   13.9889   19.5792 C   0  0  0  0  0  0  0  0  0  0  0  0
   11.2754   13.9387   20.8698 N   0  0  0  0  0  0  0  0  0  0  0  0
   10.7598   12.9944   21.7511 N   0  0  0  0  0  0  0  0  0  0  0  0
    9.6084   13.1237   22.4994 C   0  0  0  0  0  0  0  0  0  0  0  0
    8.7603   13.9600   22.2456 O   0  0  0  0  0  0  0  0  0  0  0  0
    9.4978   12.0986   23.6923 C   0  0  0  0  0  0  0  0  0  0  0  0
   10.4466   12.5638   24.8379 C   0  0  0  0  0  0  0  0  0  0  0  0
    9.9875   13.0242   26.0853 C   0  0  0  0  0  0  0  0  0  0  0  0
   10.8651   13.2741   27.1468 C   0  0  0  0  0  0  0  0  0  0  0  0
   12.2360   13.0967   26.9634 C   0  0  0  0  0  0  0  0  0  0  0  0
   13.3319   13.3766   28.2824 Cl  0  0  0  0  0  0  0  0  0  0  0  0
   12.7336   12.7187   25.7158 C   0  0  0  0  0  0  0  0  0  0  0  0
   11.8448   12.4843   24.6647 C   0  0  0  0  0  0  0  0  0  0  0  0
    9.8781   10.6325   23.2496 C   0  0  0  0  0  0  0  0  0  0  0  0
    9.5313    9.6315   24.3530 C   0  0  0  0  0  0  0  0  0  0  0  0
    8.1446    9.6400   24.6403 O   0  0  0  0  0  0  0  0  0  0  0  0
    7.6761   10.8949   25.1000 C   0  0  0  0  0  0  0  0  0  0  0  0
    7.9930   12.0263   24.1164 C   0  0  0  0  0  0  0  0  0  0  0  0
  1  2  2  0
  2  3  1  0
  3  4  1  0
  4  5  1  0
  5  6  1  0
  6  7  1  0
  7  8  1  0
  8  9  1  0
  9 10  2  0
  9 11  1  0
 11 12  1  0
 12 13  2  0
 13 14  1  0
 14 15  2  0
 15 16  1  0
 15 17  1  0
 17 18  2  0
 11 19  1  0
 19 20  1  0
 20 21  1  0
 21 22  1  0
 22 23  1  0
  7  2  1  0
 23 11  1  0
 18 12  1  0
M  END
>  <ref_pdb>  (58) 
x0554_0A

>  <ref_mols>  (58) 
x0310_0A,x0566_0A

>  <original SMILES>  (58) 
O=C1CCCCN1NC(=O)C1(c2ccc(Cl)cc2)CCOCC1

>  <rationale>  (58) 
-1

>  <IC50 (nM)>  (58) 
2103.5846835344423

>  <CNNaffinity>  (58) 
5.67704

$$$$
Z3808030265
     RDKit          3D

 23 25  0  0  0  0  0  0  0  0999 V2000
   10.2232   17.6931   18.8581 N   0  0  0  0  0  0  0  0  0  0  0  0
   10.8354   16.8046   17.8876 C   0  0  1  0  0  0  0  0  0  0  0  0
   12.0872   16.0533   18.3944 C   0  0  0  0  0  0  0  0  0  0  0  0
   11.4026   14.6917   18.1003 C   0  0  1  0  0  0  0  0  0  0  0  0
   11.1802   13.7376   19.2768 C   0  0  0  0  0  0  0  0  0  0  0  0
   10.5575   14.3379   20.5429 C   0  0  0  0  0  0  0  0  0  0  0  0
   10.3930   13.3021   21.5502 N   0  0  0  0  0  0  0  0  0  0  0  0
    9.5771   13.4324   22.6331 C   0  0  0  0  0  0  0  0  0  0  0  0
    8.9211   14.4486   22.7981 O   0  0  0  0  0  0  0  0  0  0  0  0
    9.4964   12.2390   23.6568 C   0  0  0  0  0  0  0  0  0  0  0  0
   10.4627   12.5949   24.8154 C   0  0  0  0  0  0  0  0  0  0  0  0
   10.0309   13.0275   26.0776 C   0  0  0  0  0  0  0  0  0  0  0  0
   10.9304   13.2150   27.1330 C   0  0  0  0  0  0  0  0  0  0  0  0
   12.2923   13.0000   26.9201 C   0  0  0  0  0  0  0  0  0  0  0  0
   13.4151   13.1974   28.2328 Cl  0  0  0  0  0  0  0  0  0  0  0  0
   12.7624   12.6435   25.6558 C   0  0  0  0  0  0  0  0  0  0  0  0
   11.8498   12.4669   24.6144 C   0  0  0  0  0  0  0  0  0  0  0  0
    9.8834   10.8301   23.0755 C   0  0  0  0  0  0  0  0  0  0  0  0
    9.6355    9.7386   24.1193 C   0  0  0  0  0  0  0  0  0  0  0  0
    8.2621    9.6712   24.4584 O   0  0  0  0  0  0  0  0  0  0  0  0
    7.7657   10.8721   25.0227 C   0  0  0  0  0  0  0  0  0  0  0  0
    7.9973   12.0833   24.1058 C   0  0  0  0  0  0  0  0  0  0  0  0
   10.1558   15.4420   17.5525 C   0  0  0  0  0  0  0  0  0  0  0  0
  2  1  1  1
  2  3  1  0
  3  4  1  0
  4  5  1  1
  5  6  1  0
  6  7  1  0
  7  8  1  0
  8  9  2  0
  8 10  1  0
 10 11  1  0
 11 12  2  0
 12 13  1  0
 13 14  2  0
 14 15  1  0
 14 16  1  0
 16 17  2  0
 10 18  1  0
 18 19  1  0
 19 20  1  0
 20 21  1  0
 21 22  1  0
  4 23  1  0
 23  2  1  0
 22 10  1  0
 17 11  1  0
M  END
>  <ref_pdb>  (59) 
x0554_0A

>  <ref_mols>  (59) 
x0310_0A,x0566_0A

>  <original SMILES>  (59) 
N[C@H]1C[C@@H](CCNC(=O)C2(c3ccc(Cl)cc3)CCOCC2)C1

>  <rationale>  (59) 
-1

>  <IC50 (nM)>  (59) 
2108.7738138366235

>  <CNNaffinity>  (59) 
5.67597

$$$$
Z3599420496
     RDKit          3D

 23 24  0  0  0  0  0  0  0  0999 V2000
   10.4710   13.0451   15.4368 C   0  0  0  0  0  0  0  0  0  0  0  0
    9.8007   13.5075   16.4884 C   0  0  0  0  0  0  0  0  0  0  0  0
   10.3402   14.5319   17.4521 C   0  0  0  0  0  0  0  0  0  0  0  0
   10.7691   13.8320   18.7671 C   0  0  0  0  0  0  0  0  0  0  0  0
   10.2527   14.6109   20.2895 S   0  0  1  0  0  6  0  0  0  0  0  0
   11.5949   15.5424   20.9672 C   0  0  0  0  0  0  0  0  0  0  0  0
    9.0098   15.3558   20.1593 O   0  0  0  0  0  0  0  0  0  0  0  0
   10.2581   13.3191   21.3083 N   0  0  0  0  0  0  0  0  0  0  0  0
    9.8916   13.6615   22.5237 C   0  0  0  0  0  0  0  0  0  0  0  0
    9.6113   14.8061   22.9135 O   0  0  0  0  0  0  0  0  0  0  0  0
    9.7524   12.4770   23.5848 C   0  0  0  0  0  0  0  0  0  0  0  0
   10.6339   12.8514   24.8035 C   0  0  0  0  0  0  0  0  0  0  0  0
   10.0935   13.1698   26.0640 C   0  0  0  0  0  0  0  0  0  0  0  0
   10.8942   13.3398   27.1965 C   0  0  0  0  0  0  0  0  0  0  0  0
   12.2822   13.2253   27.0926 C   0  0  0  0  0  0  0  0  0  0  0  0
   12.8598   12.9929   25.8457 C   0  0  0  0  0  0  0  0  0  0  0  0
   12.0449   12.8726   24.7138 C   0  0  0  0  0  0  0  0  0  0  0  0
   12.8929   12.8702   23.1811 Cl  0  0  0  0  0  0  0  0  0  0  0  0
   10.1683   11.0630   23.0521 C   0  0  0  0  0  0  0  0  0  0  0  0
    9.8083    9.9824   24.0728 C   0  0  0  0  0  0  0  0  0  0  0  0
    8.4078    9.9426   24.2839 O   0  0  0  0  0  0  0  0  0  0  0  0
    7.8676   11.1531   24.7847 C   0  0  0  0  0  0  0  0  0  0  0  0
    8.2177   12.3641   23.9052 C   0  0  0  0  0  0  0  0  0  0  0  0
  1  2  2  3
  2  3  1  0
  3  4  1  0
  4  5  1  0
  5  6  1  1
  5  7  2  0
  5  8  2  0
  8  9  1  0
  9 10  2  0
  9 11  1  0
 11 12  1  0
 12 13  2  0
 13 14  1  0
 14 15  2  0
 15 16  1  0
 16 17  2  0
 17 18  1  0
 11 19  1  0
 19 20  1  0
 20 21  1  0
 21 22  1  0
 22 23  1  0
 23 11  1  0
 17 12  1  0
M  END
>  <ref_pdb>  (60) 
x0554_0A

>  <ref_mols>  (60) 
x0310_0A,x0566_0A

>  <original SMILES>  (60) 
C=CCC[S@@](C)(=O)=NC(=O)C1(c2ccccc2Cl)CCOCC1

>  <rationale>  (60) 
-1

>  <IC50 (nM)>  (60) 
2115.582666121089

>  <CNNaffinity>  (60) 
5.67457

$$$$
Z4333907715
     RDKit          3D

 23 25  0  0  0  0  0  0  0  0999 V2000
    8.8929   14.0703   22.5907 O   0  0  0  0  0  0  0  0  0  0  0  0
    9.6704   13.1247   22.7010 C   0  0  0  0  0  0  0  0  0  0  0  0
   10.7614   13.0535   21.8336 N   0  0  0  0  0  0  0  0  0  0  0  0
   11.0385   13.8802   20.6965 C   0  0  0  0  0  0  0  0  0  0  0  0
   10.1722   14.8604   20.1954 C   0  0  0  0  0  0  0  0  0  0  0  0
   10.4553   15.5818   19.1016 N   0  0  0  0  0  0  0  0  0  0  0  0
   11.6207   15.3631   18.4789 C   0  0  0  0  0  0  0  0  0  0  0  0
   12.0540   16.4325   16.9660 Br  0  0  0  0  0  0  0  0  0  0  0  0
   12.5147   14.4569   18.8815 N   0  0  0  0  0  0  0  0  0  0  0  0
   12.2226   13.7275   19.9635 C   0  0  0  0  0  0  0  0  0  0  0  0
    9.4402   12.0155   23.7707 C   0  0  0  0  0  0  0  0  0  0  0  0
   10.3913   12.3353   24.9143 C   0  0  0  0  0  0  0  0  0  0  0  0
    9.9618   12.8388   26.1542 C   0  0  0  0  0  0  0  0  0  0  0  0
   10.8920   13.1889   27.1432 C   0  0  0  0  0  0  0  0  0  0  0  0
   10.3685   13.9591   28.6263 Cl  0  0  0  0  0  0  0  0  0  0  0  0
   12.2550   12.9606   26.9217 C   0  0  0  0  0  0  0  0  0  0  0  0
   12.6982   12.4591   25.6966 C   0  0  0  0  0  0  0  0  0  0  0  0
   11.7661   12.1851   24.6959 C   0  0  0  0  0  0  0  0  0  0  0  0
    9.7787   10.5841   23.2431 C   0  0  0  0  0  0  0  0  0  0  0  0
    9.4381    9.5162   24.2921 C   0  0  0  0  0  0  0  0  0  0  0  0
    8.0507    9.5889   24.6341 O   0  0  0  0  0  0  0  0  0  0  0  0
    7.6730   10.8467   25.2038 C   0  0  0  0  0  0  0  0  0  0  0  0
    7.9585   11.9996   24.2385 C   0  0  0  0  0  0  0  0  0  0  0  0
  1  2  2  0
  2  3  1  0
  3  4  1  0
  4  5  2  0
  5  6  1  0
  6  7  2  0
  7  8  1  0
  7  9  1  0
  9 10  2  0
  2 11  1  0
 11 12  1  0
 12 13  2  0
 13 14  1  0
 14 15  1  0
 14 16  2  0
 16 17  1  0
 17 18  2  0
 11 19  1  0
 19 20  1  0
 20 21  1  0
 21 22  1  0
 22 23  1  0
 10  4  1  0
 23 11  1  0
 18 12  1  0
M  END
>  <ref_pdb>  (61) 
x0554_0A

>  <ref_mols>  (61) 
x0310_0A,x0566_0A

>  <original SMILES>  (61) 
O=C(Nc1cnc(Br)nc1)C1(c2cccc(Cl)c2)CCOCC1

>  <rationale>  (61) 
-1

>  <IC50 (nM)>  (61) 
2124.8584289569503

>  <CNNaffinity>  (61) 
5.67267

$$$$
Z3134505663
     RDKit          3D

 23 25  0  0  0  0  0  0  0  0999 V2000
   11.2877   16.4249   19.7551 C   0  0  0  0  0  0  0  0  0  0  0  0
   11.4878   15.1457   20.5933 C   0  0  2  0  0  0  0  0  0  0  0  0
   12.6344   14.2591   20.0824 C   0  0  0  0  0  0  0  0  0  0  0  0
   12.0799   13.6493   18.8732 N   0  0  0  0  0  0  0  0  0  0  0  0
   10.6126   13.6008   19.0234 C   0  0  0  0  0  0  0  0  0  0  0  0
   10.2680   14.2169   20.4126 C   0  0  1  0  0  0  0  0  0  0  0  0
   10.1716   13.2553   21.5015 N   0  0  0  0  0  0  0  0  0  0  0  0
    9.5933   13.5056   22.7166 C   0  0  0  0  0  0  0  0  0  0  0  0
    9.0870   14.5885   22.9575 O   0  0  0  0  0  0  0  0  0  0  0  0
    9.5545   12.3308   23.7795 C   0  0  0  0  0  0  0  0  0  0  0  0
   10.5071   12.7170   24.9464 C   0  0  0  0  0  0  0  0  0  0  0  0
   10.0280   12.9963   26.2428 C   0  0  0  0  0  0  0  0  0  0  0  0
   10.8687   13.1346   27.3485 C   0  0  0  0  0  0  0  0  0  0  0  0
   12.2471   13.0152   27.1752 C   0  0  0  0  0  0  0  0  0  0  0  0
   13.3118   13.1152   28.5418 Cl  0  0  0  0  0  0  0  0  0  0  0  0
   12.7823   12.8405   25.9048 C   0  0  0  0  0  0  0  0  0  0  0  0
   11.9159   12.7517   24.8096 C   0  0  0  0  0  0  0  0  0  0  0  0
   12.7419   12.7873   23.2770 Cl  0  0  0  0  0  0  0  0  0  0  0  0
    9.9591   10.9266   23.2021 C   0  0  0  0  0  0  0  0  0  0  0  0
    9.6441    9.7921   24.1780 C   0  0  0  0  0  0  0  0  0  0  0  0
    8.2606    9.7306   24.4654 O   0  0  0  0  0  0  0  0  0  0  0  0
    7.7775   10.9102   25.0799 C   0  0  0  0  0  0  0  0  0  0  0  0
    8.0470   12.1589   24.2209 C   0  0  0  0  0  0  0  0  0  0  0  0
  2  1  1  6
  2  3  1  0
  3  4  1  0
  4  5  1  0
  5  6  1  0
  6  7  1  1
  7  8  1  0
  8  9  2  0
  8 10  1  0
 10 11  1  0
 11 12  2  0
 12 13  1  0
 13 14  2  0
 14 15  1  0
 14 16  1  0
 16 17  2  0
 17 18  1  0
 10 19  1  0
 19 20  1  0
 20 21  1  0
 21 22  1  0
 22 23  1  0
  6  2  1  0
 23 10  1  0
 17 11  1  0
M  END
>  <ref_pdb>  (62) 
x0554_0A

>  <ref_mols>  (62) 
x0310_0A,x0566_0A

>  <original SMILES>  (62) 
C[C@@H]1CNC[C@H]1NC(=O)C1(c2ccc(Cl)cc2Cl)CCOCC1

>  <rationale>  (62) 
-1

>  <IC50 (nM)>  (62) 
2132.259215099238

>  <CNNaffinity>  (62) 
5.67116

$$$$
Z4181705950
     RDKit          3D

 23 25  0  0  0  0  0  0  0  0999 V2000
   12.6727   13.5705   19.5923 C   0  0  0  0  0  0  0  0  0  0  0  0
   11.2865   14.0327   19.5939 N   0  0  0  0  0  0  0  0  0  0  0  0
   10.6780   14.7459   18.5883 C   0  0  0  0  0  0  0  0  0  0  0  0
   11.3042   15.1550   16.8326 Br  0  0  0  0  0  0  0  0  0  0  0  0
    9.4809   15.1308   19.1020 C   0  0  0  0  0  0  0  0  0  0  0  0
    9.2900   14.6368   20.3855 N   0  0  0  0  0  0  0  0  0  0  0  0
   10.3852   13.9763   20.6444 C   0  0  0  0  0  0  0  0  0  0  0  0
   10.5427   13.2558   21.8088 N   0  0  0  0  0  0  0  0  0  0  0  0
    9.5420   13.2249   22.7579 C   0  0  0  0  0  0  0  0  0  0  0  0
    8.6993   14.1145   22.7175 O   0  0  0  0  0  0  0  0  0  0  0  0
    9.4195   12.0805   23.8108 C   0  0  0  0  0  0  0  0  0  0  0  0
   10.3937   12.3922   24.9386 C   0  0  0  0  0  0  0  0  0  0  0  0
    9.9665   12.8242   26.2045 C   0  0  0  0  0  0  0  0  0  0  0  0
   10.8995   13.0997   27.2122 C   0  0  0  0  0  0  0  0  0  0  0  0
   12.2668   12.9390   26.9725 C   0  0  0  0  0  0  0  0  0  0  0  0
   13.4331   13.2625   28.2274 Cl  0  0  0  0  0  0  0  0  0  0  0  0
   12.6993   12.5303   25.7103 C   0  0  0  0  0  0  0  0  0  0  0  0
   11.7696   12.2760   24.6983 C   0  0  0  0  0  0  0  0  0  0  0  0
    9.7619   10.6733   23.2384 C   0  0  0  0  0  0  0  0  0  0  0  0
    9.4830    9.5708   24.2733 C   0  0  0  0  0  0  0  0  0  0  0  0
    8.1020    9.5964   24.6524 O   0  0  0  0  0  0  0  0  0  0  0  0
    7.7165   10.8308   25.2685 C   0  0  0  0  0  0  0  0  0  0  0  0
    7.9476   11.9978   24.3060 C   0  0  0  0  0  0  0  0  0  0  0  0
  1  2  1  0
  2  3  1  0
  3  4  1  0
  3  5  2  0
  5  6  1  0
  6  7  2  0
  7  8  1  0
  8  9  1  0
  9 10  2  0
  9 11  1  0
 11 12  1  0
 12 13  2  0
 13 14  1  0
 14 15  2  0
 15 16  1  0
 15 17  1  0
 17 18  2  0
 11 19  1  0
 19 20  1  0
 20 21  1  0
 21 22  1  0
 22 23  1  0
  7  2  1  0
 23 11  1  0
 18 12  1  0
M  END
>  <ref_pdb>  (63) 
x0554_0A

>  <ref_mols>  (63) 
x0310_0A,x0566_0A

>  <original SMILES>  (63) 
Cn1c(Br)cnc1NC(=O)C1(c2ccc(Cl)cc2)CCOCC1

>  <rationale>  (63) 
-1

>  <IC50 (nM)>  (63) 
2145.3591158157096

>  <CNNaffinity>  (63) 
5.6685

$$$$
Z3385942713
     RDKit          3D

 23 25  0  0  0  0  0  0  0  0999 V2000
   10.8722   14.5922   17.1314 C   0  0  0  0  0  0  0  0  0  0  0  0
   10.8739   15.2235   18.5508 C   0  0  0  0  0  0  0  0  0  0  0  0
    9.9558   16.4623   18.5429 C   0  0  0  0  0  0  0  0  0  0  0  0
   12.3108   15.7136   18.9024 C   0  0  0  0  0  0  0  0  0  0  0  0
   13.1478   14.6142   19.3564 N   0  0  0  0  0  0  0  0  0  0  0  0
   12.7073   14.0206   20.6328 C   0  0  0  0  0  0  0  0  0  0  0  0
   11.1896   14.1694   20.9133 C   0  0  2  0  0  0  0  0  0  0  0  0
   10.7580   13.1316   21.8451 N   0  0  0  0  0  0  0  0  0  0  0  0
    9.6713   13.2278   22.6693 C   0  0  0  0  0  0  0  0  0  0  0  0
    8.9105   14.1773   22.6002 O   0  0  0  0  0  0  0  0  0  0  0  0
    9.5024   12.0880   23.7450 C   0  0  0  0  0  0  0  0  0  0  0  0
   10.4568   12.4481   24.9187 C   0  0  0  0  0  0  0  0  0  0  0  0
   10.0224   12.9351   26.1608 C   0  0  0  0  0  0  0  0  0  0  0  0
   10.9301   13.1779   27.1998 C   0  0  0  0  0  0  0  0  0  0  0  0
   12.3000   12.9577   27.0133 C   0  0  0  0  0  0  0  0  0  0  0  0
   12.7557   12.5286   25.7639 C   0  0  0  0  0  0  0  0  0  0  0  0
   11.8460   12.2998   24.7290 C   0  0  0  0  0  0  0  0  0  0  0  0
    9.8396   10.6415   23.2179 C   0  0  0  0  0  0  0  0  0  0  0  0
    9.4693    9.5859   24.2671 C   0  0  0  0  0  0  0  0  0  0  0  0
    8.0859    9.6224   24.5693 O   0  0  0  0  0  0  0  0  0  0  0  0
    7.6523   10.8669   25.0875 C   0  0  0  0  0  0  0  0  0  0  0  0
    7.9914   12.0298   24.1471 C   0  0  0  0  0  0  0  0  0  0  0  0
   10.3926   14.1597   19.5986 C   0  0  0  0  0  0  0  0  0  0  0  0
  1  2  1  0
  2  3  1  0
  2  4  1  0
  4  5  1  0
  5  6  1  0
  6  7  1  0
  7  8  1  1
  8  9  1  0
  9 10  2  0
  9 11  1  0
 11 12  1  0
 12 13  2  0
 13 14  1  0
 14 15  2  0
 15 16  1  0
 16 17  2  0
 11 18  1  0
 18 19  1  0
 19 20  1  0
 20 21  1  0
 21 22  1  0
  7 23  1  0
 23  2  1  0
 22 11  1  0
 17 12  1  0
M  END
>  <ref_pdb>  (64) 
x0554_0A

>  <ref_mols>  (64) 
x0310_0A,x0566_0A

>  <original SMILES>  (64) 
CC1(C)CNC[C@H](NC(=O)C2(c3ccccc3)CCOCC2)C1

>  <rationale>  (64) 
-1

>  <IC50 (nM)>  (64) 
2145.507317091916

>  <CNNaffinity>  (64) 
5.66847

$$$$
Z3712614525
     RDKit          3D

 23 25  0  0  0  0  0  0  0  0999 V2000
    9.2945   14.4058   22.7612 O   0  0  0  0  0  0  0  0  0  0  0  0
   10.0356   13.4282   22.7770 C   0  0  0  0  0  0  0  0  0  0  0  0
   11.1231   13.4440   21.9134 N   0  0  0  0  0  0  0  0  0  0  0  0
   11.1942   14.4623   20.8487 C   0  0  2  0  0  0  0  0  0  0  0  0
    9.9733   14.2194   19.9791 C   0  0  0  0  0  0  0  0  0  0  0  0
    9.8146   15.2686   18.8780 C   0  0  0  0  0  0  0  0  0  0  0  0
   11.0485   15.3022   17.9739 C   0  0  0  0  0  0  0  0  0  0  0  0
   12.3266   15.4754   18.8095 C   0  0  0  0  0  0  0  0  0  0  0  0
   12.4563   14.4430   19.9423 C   0  0  2  0  0  0  0  0  0  0  0  0
   12.6604   13.1750   19.2997 O   0  0  0  0  0  0  0  0  0  0  0  0
    9.7436   12.2421   23.7294 C   0  0  0  0  0  0  0  0  0  0  0  0
   10.6304   12.4974   24.9376 C   0  0  0  0  0  0  0  0  0  0  0  0
   10.1240   12.8541   26.1972 C   0  0  0  0  0  0  0  0  0  0  0  0
   10.9986   13.0938   27.2660 C   0  0  0  0  0  0  0  0  0  0  0  0
   12.3819   12.9727   27.0902 C   0  0  0  0  0  0  0  0  0  0  0  0
   13.5819   13.2507   28.5499 Br  0  0  0  0  0  0  0  0  0  0  0  0
   12.8907   12.6549   25.8307 C   0  0  0  0  0  0  0  0  0  0  0  0
   12.0191   12.4382   24.7626 C   0  0  0  0  0  0  0  0  0  0  0  0
   10.1024   10.8526   23.1262 C   0  0  0  0  0  0  0  0  0  0  0  0
    9.6960    9.7193   24.0753 C   0  0  0  0  0  0  0  0  0  0  0  0
    8.2898    9.7799   24.3500 O   0  0  0  0  0  0  0  0  0  0  0  0
    7.8844   11.0073   24.9700 C   0  0  0  0  0  0  0  0  0  0  0  0
    8.2310   12.2014   24.0794 C   0  0  0  0  0  0  0  0  0  0  0  0
  1  2  2  0
  2  3  1  0
  4  3  1  1
  4  5  1  0
  5  6  1  0
  6  7  1  0
  7  8  1  0
  8  9  1  0
  9 10  1  6
  2 11  1  0
 11 12  1  0
 12 13  2  0
 13 14  1  0
 14 15  2  0
 15 16  1  0
 15 17  1  0
 17 18  2  0
 11 19  1  0
 19 20  1  0
 20 21  1  0
 21 22  1  0
 22 23  1  0
  9  4  1  0
 23 11  1  0
 18 12  1  0
M  END
>  <ref_pdb>  (65) 
x0554_0A

>  <ref_mols>  (65) 
x0310_0A,x0566_0A

>  <original SMILES>  (65) 
O=C(N[C@@H]1CCCC[C@@H]1O)C1(c2ccc(Br)cc2)CCOCC1

>  <rationale>  (65) 
-1

>  <IC50 (nM)>  (65) 
2151.691479003622

>  <CNNaffinity>  (65) 
5.66722

$$$$
Z3008870435
     RDKit          3D

 23 25  0  0  0  0  0  0  0  0999 V2000
   12.4286   16.1724   17.4831 C   0  0  0  0  0  0  0  0  0  0  0  0
   11.3798   15.0880   17.2935 C   0  0  0  0  0  0  0  0  0  0  0  0
   10.8101   14.7447   18.5999 N   0  0  0  0  0  0  0  0  0  0  0  0
    9.6362   15.2566   19.1290 C   0  0  0  0  0  0  0  0  0  0  0  0
    9.4039   14.8007   20.3351 N   0  0  0  0  0  0  0  0  0  0  0  0
   10.4774   13.9879   20.6105 C   0  0  0  0  0  0  0  0  0  0  0  0
   10.5916   13.2785   21.7784 N   0  0  0  0  0  0  0  0  0  0  0  0
    9.5558   13.2575   22.6905 C   0  0  0  0  0  0  0  0  0  0  0  0
    8.6722   14.0972   22.5779 O   0  0  0  0  0  0  0  0  0  0  0  0
    9.4375   12.1491   23.7800 C   0  0  0  0  0  0  0  0  0  0  0  0
   10.4016   12.4931   24.9157 C   0  0  0  0  0  0  0  0  0  0  0  0
    9.9380   12.8715   26.1858 C   0  0  0  0  0  0  0  0  0  0  0  0
   10.8319   13.1622   27.2230 C   0  0  0  0  0  0  0  0  0  0  0  0
   12.2101   13.0799   27.0007 C   0  0  0  0  0  0  0  0  0  0  0  0
   12.6961   12.7330   25.7371 C   0  0  0  0  0  0  0  0  0  0  0  0
   14.5811   12.6569   25.4145 Br  0  0  0  0  0  0  0  0  0  0  0  0
   11.7920   12.4484   24.7051 C   0  0  0  0  0  0  0  0  0  0  0  0
    9.8139   10.7544   23.2203 C   0  0  0  0  0  0  0  0  0  0  0  0
    9.5635    9.6362   24.2425 C   0  0  0  0  0  0  0  0  0  0  0  0
    8.1888    9.6206   24.6480 O   0  0  0  0  0  0  0  0  0  0  0  0
    7.7669   10.8533   25.2442 C   0  0  0  0  0  0  0  0  0  0  0  0
    7.9573   12.0197   24.2644 C   0  0  0  0  0  0  0  0  0  0  0  0
   11.3481   13.9289   19.5739 C   0  0  0  0  0  0  0  0  0  0  0  0
  1  2  1  0
  2  3  1  0
  3  4  1  0
  4  5  2  0
  5  6  1  0
  6  7  1  0
  7  8  1  0
  8  9  2  0
  8 10  1  0
 10 11  1  0
 11 12  2  0
 12 13  1  0
 13 14  2  0
 14 15  1  0
 15 16  1  0
 15 17  2  0
 10 18  1  0
 18 19  1  0
 19 20  1  0
 20 21  1  0
 21 22  1  0
  6 23  2  0
 23  3  1  0
 22 10  1  0
 17 11  1  0
M  END
>  <ref_pdb>  (66) 
x0554_0A

>  <ref_mols>  (66) 
x0310_0A,x0566_0A

>  <original SMILES>  (66) 
CCn1cnc(NC(=O)C2(c3cccc(Br)c3)CCOCC2)c1

>  <rationale>  (66) 
-1

>  <IC50 (nM)>  (66) 
2153.7237637689022

>  <CNNaffinity>  (66) 
5.66681

$$$$
Z1492294896
     RDKit          3D

 23 25  0  0  0  0  0  0  0  0999 V2000
    8.8496   14.3154   22.9405 O   0  0  0  0  0  0  0  0  0  0  0  0
    9.5576   13.3459   22.7263 C   0  0  0  0  0  0  0  0  0  0  0  0
   10.3932   13.2818   21.6364 N   0  0  0  0  0  0  0  0  0  0  0  0
   10.6179   14.2590   20.6260 C   0  0  0  0  0  0  0  0  0  0  0  0
    9.7982   15.3911   20.5311 C   0  0  0  0  0  0  0  0  0  0  0  0
   10.0039   16.3150   19.5100 C   0  0  0  0  0  0  0  0  0  0  0  0
    9.0340   17.7580   19.4804 Cl  0  0  0  0  0  0  0  0  0  0  0  0
   10.9954   16.1350   18.5468 C   0  0  0  0  0  0  0  0  0  0  0  0
   11.8314   15.0221   18.6522 C   0  0  0  0  0  0  0  0  0  0  0  0
   11.6711   14.0960   19.6770 C   0  0  0  0  0  0  0  0  0  0  0  0
   12.6259   13.0977   19.7189 O   0  0  0  0  0  0  0  0  0  0  0  0
    9.5124   12.1178   23.7263 C   0  0  0  0  0  0  0  0  0  0  0  0
   10.4741   12.4631   24.8999 C   0  0  0  0  0  0  0  0  0  0  0  0
   10.0320   12.9250   26.1512 C   0  0  0  0  0  0  0  0  0  0  0  0
   10.9314   13.1686   27.1964 C   0  0  0  0  0  0  0  0  0  0  0  0
   12.3025   12.9688   27.0125 C   0  0  0  0  0  0  0  0  0  0  0  0
   12.7666   12.5512   25.7612 C   0  0  0  0  0  0  0  0  0  0  0  0
   11.8630   12.3251   24.7166 C   0  0  0  0  0  0  0  0  0  0  0  0
    9.8759   10.7022   23.1417 C   0  0  0  0  0  0  0  0  0  0  0  0
    9.5613    9.6077   24.1795 C   0  0  0  0  0  0  0  0  0  0  0  0
    8.1864    9.5834   24.5208 O   0  0  0  0  0  0  0  0  0  0  0  0
    7.7317   10.7979   25.0855 C   0  0  0  0  0  0  0  0  0  0  0  0
    8.0091   11.9828   24.1613 C   0  0  0  0  0  0  0  0  0  0  0  0
  1  2  2  0
  2  3  1  0
  3  4  1  0
  4  5  2  0
  5  6  1  0
  6  7  1  0
  6  8  2  0
  8  9  1  0
  9 10  2  0
 10 11  1  0
  2 12  1  0
 12 13  1  0
 13 14  2  0
 14 15  1  0
 15 16  2  0
 16 17  1  0
 17 18  2  0
 12 19  1  0
 19 20  1  0
 20 21  1  0
 21 22  1  0
 22 23  1  0
 10  4  1  0
 23 12  1  0
 18 13  1  0
M  END
>  <ref_pdb>  (67) 
x0554_0A

>  <ref_mols>  (67) 
x0310_0A,x0566_0A

>  <original SMILES>  (67) 
O=C(Nc1cc(Cl)ccc1O)C1(c2ccccc2)CCOCC1

>  <rationale>  (67) 
-1

>  <IC50 (nM)>  (67) 
2156.2544068071934

>  <CNNaffinity>  (67) 
5.6663

$$$$
Z2229675130
     RDKit          3D

 23 25  0  0  0  0  0  0  0  0999 V2000
   11.8916   14.9497   17.4445 C   0  0  0  0  0  0  0  0  0  0  0  0
   11.2157   14.7316   18.7571 C   0  0  0  0  0  0  0  0  0  0  0  0
   11.5691   13.8657   19.6539 N   0  0  0  0  0  0  0  0  0  0  0  0
   10.6239   14.0756   20.6188 C   0  0  0  0  0  0  0  0  0  0  0  0
   10.6679   13.2671   21.7112 N   0  0  0  0  0  0  0  0  0  0  0  0
    9.6159   13.2360   22.5940 C   0  0  0  0  0  0  0  0  0  0  0  0
    8.7485   14.0900   22.4631 O   0  0  0  0  0  0  0  0  0  0  0  0
    9.4715   12.1285   23.6791 C   0  0  0  0  0  0  0  0  0  0  0  0
   10.4345   12.4464   24.8161 C   0  0  0  0  0  0  0  0  0  0  0  0
    9.9830   12.8417   26.0845 C   0  0  0  0  0  0  0  0  0  0  0  0
   10.8889   13.0881   27.1230 C   0  0  0  0  0  0  0  0  0  0  0  0
   12.2619   12.9367   26.9094 C   0  0  0  0  0  0  0  0  0  0  0  0
   13.5006   13.2678   28.3266 Br  0  0  0  0  0  0  0  0  0  0  0  0
   12.7242   12.5507   25.6486 C   0  0  0  0  0  0  0  0  0  0  0  0
   11.8163   12.3250   24.6066 C   0  0  0  0  0  0  0  0  0  0  0  0
    9.8223   10.7068   23.1525 C   0  0  0  0  0  0  0  0  0  0  0  0
    9.5197    9.6383   24.2153 C   0  0  0  0  0  0  0  0  0  0  0  0
    8.1345    9.6849   24.5786 O   0  0  0  0  0  0  0  0  0  0  0  0
    7.7615   10.9357   25.1675 C   0  0  0  0  0  0  0  0  0  0  0  0
    7.9961   12.0747   24.1724 C   0  0  0  0  0  0  0  0  0  0  0  0
    9.7246   14.9961   20.3947 N   0  0  0  0  0  0  0  0  0  0  0  0
   10.1133   15.4451   19.1848 N   0  0  0  0  0  0  0  0  0  0  0  0
    9.4726   16.5278   18.4347 C   0  0  0  0  0  0  0  0  0  0  0  0
  1  2  1  0
  2  3  2  0
  3  4  1  0
  4  5  1  0
  5  6  1  0
  6  7  2  0
  6  8  1  0
  8  9  1  0
  9 10  2  0
 10 11  1  0
 11 12  2  0
 12 13  1  0
 12 14  1  0
 14 15  2  0
  8 16  1  0
 16 17  1  0
 17 18  1  0
 18 19  1  0
 19 20  1  0
  4 21  2  0
 21 22  1  0
 22 23  1  0
 22  2  1  0
 20  8  1  0
 15  9  1  0
M  END
>  <ref_pdb>  (68) 
x0554_0A

>  <ref_mols>  (68) 
x0310_0A,x0566_0A

>  <original SMILES>  (68) 
Cc1nc(NC(=O)C2(c3ccc(Br)cc3)CCOCC2)nn1C

>  <rationale>  (68) 
-1

>  <IC50 (nM)>  (68) 
2169.052181077014

>  <CNNaffinity>  (68) 
5.66373

$$$$
Z4040409961
     RDKit          3D

 23 26  0  0  0  0  0  0  0  0999 V2000
    9.0602   14.2381   22.5513 O   0  0  0  0  0  0  0  0  0  0  0  0
    9.8357   13.3094   22.6805 C   0  0  0  0  0  0  0  0  0  0  0  0
   10.9915   13.2439   21.9206 N   0  0  0  0  0  0  0  0  0  0  0  0
   11.1985   14.1552   20.8491 C   0  0  1  0  0  0  0  0  0  0  0  0
   11.3267   15.7062   20.9453 C   0  0  0  0  0  0  0  0  0  0  0  0
   11.4662   15.3258   19.4364 C   0  0  1  0  0  0  0  0  0  0  0  0
   11.6386   16.2243   18.2102 C   0  0  0  0  0  0  0  0  0  0  0  0
   12.8818   16.0479   17.5596 O   0  0  0  0  0  0  0  0  0  0  0  0
   12.3998   14.1601   19.8878 C   0  0  0  0  0  0  0  0  0  0  0  0
   10.2664   14.3539   19.6296 C   0  0  0  0  0  0  0  0  0  0  0  0
    9.6034   12.1778   23.7468 C   0  0  0  0  0  0  0  0  0  0  0  0
   10.5052   12.5374   24.9552 C   0  0  0  0  0  0  0  0  0  0  0  0
   10.0208   12.9691   26.2002 C   0  0  0  0  0  0  0  0  0  0  0  0
   10.8996   13.2420   27.2539 C   0  0  0  0  0  0  0  0  0  0  0  0
   12.2806   13.1035   27.0906 C   0  0  0  0  0  0  0  0  0  0  0  0
   12.7640   12.7004   25.8454 C   0  0  0  0  0  0  0  0  0  0  0  0
   14.4806   12.5296   25.6094 Cl  0  0  0  0  0  0  0  0  0  0  0  0
   11.9004   12.4384   24.7852 C   0  0  0  0  0  0  0  0  0  0  0  0
    9.9544   10.7345   23.2272 C   0  0  0  0  0  0  0  0  0  0  0  0
    9.5512    9.6840   24.2706 C   0  0  0  0  0  0  0  0  0  0  0  0
    8.1550    9.7078   24.5089 O   0  0  0  0  0  0  0  0  0  0  0  0
    7.6918   10.9470   25.0135 C   0  0  0  0  0  0  0  0  0  0  0  0
    8.0724   12.1187   24.0942 C   0  0  0  0  0  0  0  0  0  0  0  0
  1  2  2  0
  2  3  1  0
  4  3  1  1
  4  5  1  0
  5  6  1  0
  6  7  1  6
  7  8  1  0
  6  9  1  0
  6 10  1  0
  2 11  1  0
 11 12  1  0
 12 13  2  0
 13 14  1  0
 14 15  2  0
 15 16  1  0
 16 17  1  0
 16 18  2  0
 11 19  1  0
 19 20  1  0
 20 21  1  0
 21 22  1  0
 22 23  1  0
  9  4  1  0
 23 11  1  0
 10  4  1  0
 18 12  1  0
M  END
>  <ref_pdb>  (69) 
x0554_0A

>  <ref_mols>  (69) 
x0310_0A,x0566_0A

>  <original SMILES>  (69) 
O=C(N[C@]12C[C@](CO)(C1)C2)C1(c2cccc(Cl)c2)CCOCC1

>  <rationale>  (69) 
-1

>  <IC50 (nM)>  (69) 
2178.4620565693635

>  <CNNaffinity>  (69) 
5.66185

$$$$
Z1533686820
     RDKit          3D

 23 25  0  0  0  0  0  0  0  0999 V2000
   12.2019   14.8320   21.1759 C   0  0  0  0  0  0  0  0  0  0  0  0
   10.8958   14.2707   20.6145 C   0  0  1  0  0  0  0  0  0  0  0  0
   11.0495   13.7713   19.1705 C   0  0  0  0  0  0  0  0  0  0  0  0
   11.1143   14.8476   18.0991 C   0  0  0  0  0  0  0  0  0  0  0  0
   10.6187   14.5124   16.7222 C   0  0  0  0  0  0  0  0  0  0  0  0
    9.8872   15.5251   17.5583 C   0  0  0  0  0  0  0  0  0  0  0  0
   10.4476   13.1815   21.4796 N   0  0  0  0  0  0  0  0  0  0  0  0
    9.6416   13.3828   22.5621 C   0  0  0  0  0  0  0  0  0  0  0  0
    9.0081   14.4188   22.6997 O   0  0  0  0  0  0  0  0  0  0  0  0
    9.5194   12.2279   23.6420 C   0  0  0  0  0  0  0  0  0  0  0  0
   10.4696   12.5961   24.8098 C   0  0  0  0  0  0  0  0  0  0  0  0
   10.0586   12.9375   26.1095 C   0  0  0  0  0  0  0  0  0  0  0  0
   10.9683   13.0842   27.1616 C   0  0  0  0  0  0  0  0  0  0  0  0
   12.3252   12.9358   26.9000 C   0  0  0  0  0  0  0  0  0  0  0  0
   13.2031   13.0446   27.9078 F   0  0  0  0  0  0  0  0  0  0  0  0
   12.8042   12.7002   25.6183 C   0  0  0  0  0  0  0  0  0  0  0  0
   11.8598   12.5624   24.6103 C   0  0  0  0  0  0  0  0  0  0  0  0
   12.3367   12.4103   23.3502 F   0  0  0  0  0  0  0  0  0  0  0  0
    9.8787   10.7842   23.1295 C   0  0  0  0  0  0  0  0  0  0  0  0
    9.5042    9.7253   24.1749 C   0  0  0  0  0  0  0  0  0  0  0  0
    8.1172    9.7475   24.4609 O   0  0  0  0  0  0  0  0  0  0  0  0
    7.6813   10.9847   24.9957 C   0  0  0  0  0  0  0  0  0  0  0  0
    8.0068   12.1561   24.0587 C   0  0  0  0  0  0  0  0  0  0  0  0
  2  1  1  1
  2  3  1  0
  3  4  1  0
  4  5  1  0
  5  6  1  0
  2  7  1  0
  7  8  1  0
  8  9  2  0
  8 10  1  0
 10 11  1  0
 11 12  2  0
 12 13  1  0
 13 14  2  0
 14 15  1  0
 14 16  1  0
 16 17  2  0
 17 18  1  0
 10 19  1  0
 19 20  1  0
 20 21  1  0
 21 22  1  0
 22 23  1  0
  6  4  1  0
 23 10  1  0
 17 11  1  0
M  END
>  <ref_pdb>  (70) 
x0554_0A

>  <ref_mols>  (70) 
x0310_0A,x0566_0A

>  <original SMILES>  (70) 
C[C@@H](CC1CC1)NC(=O)C1(c2ccc(F)cc2F)CCOCC1

>  <rationale>  (70) 
-1

>  <IC50 (nM)>  (70) 
2182.2776257867085

>  <CNNaffinity>  (70) 
5.66109

$$$$
Z2500122162
     RDKit          3D

 23 25  0  0  0  0  0  0  0  0999 V2000
   12.4401   16.2400   17.3544 C   0  0  0  0  0  0  0  0  0  0  0  0
   11.2917   15.2418   17.1879 C   0  0  0  0  0  0  0  0  0  0  0  0
   10.7049   14.8249   18.5036 C   0  0  0  0  0  0  0  0  0  0  0  0
    9.4610   15.2090   18.8955 N   0  0  0  0  0  0  0  0  0  0  0  0
    9.1016   14.7546   20.1152 N   0  0  0  0  0  0  0  0  0  0  0  0
   10.1573   14.0507   20.4930 C   0  0  0  0  0  0  0  0  0  0  0  0
   10.2221   13.2679   21.6560 N   0  0  0  0  0  0  0  0  0  0  0  0
    9.4440   13.3918   22.7869 C   0  0  0  0  0  0  0  0  0  0  0  0
    8.8106   14.3973   23.0196 O   0  0  0  0  0  0  0  0  0  0  0  0
    9.4333   12.1627   23.7817 C   0  0  0  0  0  0  0  0  0  0  0  0
   10.4167   12.5241   24.9262 C   0  0  0  0  0  0  0  0  0  0  0  0
    9.9988   12.9848   26.1860 C   0  0  0  0  0  0  0  0  0  0  0  0
   10.9212   13.2096   27.2149 C   0  0  0  0  0  0  0  0  0  0  0  0
   12.2874   13.0062   26.9969 C   0  0  0  0  0  0  0  0  0  0  0  0
   12.7263   12.6181   25.7275 C   0  0  0  0  0  0  0  0  0  0  0  0
   11.8013   12.4074   24.7015 C   0  0  0  0  0  0  0  0  0  0  0  0
    9.8177   10.7636   23.1687 C   0  0  0  0  0  0  0  0  0  0  0  0
    9.5733    9.6441   24.1882 C   0  0  0  0  0  0  0  0  0  0  0  0
    8.2060    9.5778   24.5531 O   0  0  0  0  0  0  0  0  0  0  0  0
    7.7231   10.7718   25.1416 C   0  0  0  0  0  0  0  0  0  0  0  0
    7.9457   11.9926   24.2462 C   0  0  0  0  0  0  0  0  0  0  0  0
   11.2200   14.0999   19.5614 C   0  0  0  0  0  0  0  0  0  0  0  0
   12.6284   13.6195   19.7518 C   0  0  0  0  0  0  0  0  0  0  0  0
  1  2  1  0
  2  3  1  0
  3  4  2  0
  4  5  1  0
  5  6  1  0
  6  7  1  0
  7  8  1  0
  8  9  2  0
  8 10  1  0
 10 11  1  0
 11 12  2  0
 12 13  1  0
 13 14  2  0
 14 15  1  0
 15 16  2  0
 10 17  1  0
 17 18  1  0
 18 19  1  0
 19 20  1  0
 20 21  1  0
  6 22  2  0
 22 23  1  0
 22  3  1  0
 21 10  1  0
 16 11  1  0
M  END
>  <ref_pdb>  (71) 
x0554_0A

>  <ref_mols>  (71) 
x0310_0A,x0566_0A

>  <original SMILES>  (71) 
CCc1n[nH]c(NC(=O)C2(c3ccccc3)CCOCC2)c1C

>  <rationale>  (71) 
-1

>  <IC50 (nM)>  (71) 
2183.735327602175

>  <CNNaffinity>  (71) 
5.6608

$$$$
Z816125754
     RDKit          3D

 23 25  0  0  0  0  0  0  0  0999 V2000
    9.1920   14.3156   22.9592 O   0  0  0  0  0  0  0  0  0  0  0  0
    9.8674   13.3024   22.8603 C   0  0  0  0  0  0  0  0  0  0  0  0
   10.8771   13.2299   21.9427 N   0  0  0  0  0  0  0  0  0  0  0  0
   11.1005   14.2724   20.9350 C   0  0  0  0  0  0  0  0  0  0  0  0
   10.0104   14.1493   19.8620 C   0  0  0  0  0  0  0  0  0  0  0  0
    9.7551   15.2863   18.8538 C   0  0  0  0  0  0  0  0  0  0  0  0
   10.9358   16.1221   18.3358 C   0  0  0  0  0  0  0  0  0  0  0  0
   12.2603   15.3833   18.1381 C   0  0  0  0  0  0  0  0  0  0  0  0
   13.0396   15.1380   19.4352 C   0  0  0  0  0  0  0  0  0  0  0  0
   12.5256   14.0723   20.4076 C   0  0  0  0  0  0  0  0  0  0  0  0
    9.6378   12.0783   23.8258 C   0  0  0  0  0  0  0  0  0  0  0  0
   10.5603   12.3822   25.0301 C   0  0  0  0  0  0  0  0  0  0  0  0
   10.1086   12.8820   26.2568 C   0  0  0  0  0  0  0  0  0  0  0  0
   11.0020   13.1602   27.2983 C   0  0  0  0  0  0  0  0  0  0  0  0
   12.3680   12.9375   27.1116 C   0  0  0  0  0  0  0  0  0  0  0  0
   13.4843   13.2497   28.4068 Cl  0  0  0  0  0  0  0  0  0  0  0  0
   12.8531   12.4808   25.8864 C   0  0  0  0  0  0  0  0  0  0  0  0
   11.9484   12.2409   24.8528 C   0  0  0  0  0  0  0  0  0  0  0  0
    9.9511   10.6441   23.2502 C   0  0  0  0  0  0  0  0  0  0  0  0
    9.5152    9.5631   24.2547 C   0  0  0  0  0  0  0  0  0  0  0  0
    8.1238    9.6271   24.5173 O   0  0  0  0  0  0  0  0  0  0  0  0
    7.7034   10.8688   25.0522 C   0  0  0  0  0  0  0  0  0  0  0  0
    8.1076   12.0417   24.1564 C   0  0  0  0  0  0  0  0  0  0  0  0
  1  2  2  0
  2  3  1  0
  3  4  1  0
  4  5  1  0
  5  6  1  0
  6  7  1  0
  7  8  1  0
  8  9  1  0
  9 10  1  0
  2 11  1  0
 11 12  1  0
 12 13  2  0
 13 14  1  0
 14 15  2  0
 15 16  1  0
 15 17  1  0
 17 18  2  0
 11 19  1  0
 19 20  1  0
 20 21  1  0
 21 22  1  0
 22 23  1  0
 10  4  1  0
 23 11  1  0
 18 12  1  0
M  END
>  <ref_pdb>  (72) 
x0554_0A

>  <ref_mols>  (72) 
x0310_0A,x0566_0A

>  <original SMILES>  (72) 
O=C(NC1CCCCCC1)C1(c2ccc(Cl)cc2)CCOCC1

>  <rationale>  (72) 
-1

>  <IC50 (nM)>  (72) 
2185.646893610167

>  <CNNaffinity>  (72) 
5.66042

$$$$
Z3055600068
     RDKit          3D

 23 26  0  0  0  0  0  0  0  0999 V2000
    8.9340   14.3033   22.7493 O   0  0  0  0  0  0  0  0  0  0  0  0
    9.6158   13.3105   22.6590 C   0  0  0  0  0  0  0  0  0  0  0  0
   10.5416   13.1596   21.6540 N   0  0  0  0  0  0  0  0  0  0  0  0
   10.5489   13.8604   20.4579 C   0  0  0  0  0  0  0  0  0  0  0  0
    9.5142   14.5691   20.0231 N   0  0  0  0  0  0  0  0  0  0  0  0
    9.9363   14.9701   18.8152 N   0  0  0  0  0  0  0  0  0  0  0  0
    9.2572   15.8049   17.8563 C   0  0  0  0  0  0  0  0  0  0  0  0
   10.2599   15.8464   16.6703 C   0  0  0  0  0  0  0  0  0  0  0  0
   11.5299   15.0710   17.1233 C   0  0  0  0  0  0  0  0  0  0  0  0
   11.1751   14.5737   18.4874 C   0  0  0  0  0  0  0  0  0  0  0  0
   11.6347   13.8368   19.5545 C   0  0  0  0  0  0  0  0  0  0  0  0
    9.5109   12.1348   23.7196 C   0  0  0  0  0  0  0  0  0  0  0  0
   10.4718   12.4934   24.8850 C   0  0  0  0  0  0  0  0  0  0  0  0
   10.0391   12.9689   26.1359 C   0  0  0  0  0  0  0  0  0  0  0  0
   10.9481   13.1864   27.1802 C   0  0  0  0  0  0  0  0  0  0  0  0
   12.3146   12.9574   26.9923 C   0  0  0  0  0  0  0  0  0  0  0  0
   12.7701   12.5544   25.7338 C   0  0  0  0  0  0  0  0  0  0  0  0
   11.8589   12.3465   24.6940 C   0  0  0  0  0  0  0  0  0  0  0  0
    9.8536   10.7015   23.1645 C   0  0  0  0  0  0  0  0  0  0  0  0
    9.5113    9.6187   24.1960 C   0  0  0  0  0  0  0  0  0  0  0  0
    8.1320    9.6297   24.5171 O   0  0  0  0  0  0  0  0  0  0  0  0
    7.6916   10.8576   25.0685 C   0  0  0  0  0  0  0  0  0  0  0  0
    8.0026   12.0440   24.1472 C   0  0  0  0  0  0  0  0  0  0  0  0
  1  2  2  0
  2  3  1  0
  3  4  1  0
  4  5  2  0
  5  6  1  0
  6  7  1  0
  7  8  1  0
  8  9  1  0
  9 10  1  0
 10 11  2  0
  2 12  1  0
 12 13  1  0
 13 14  2  0
 14 15  1  0
 15 16  2  0
 16 17  1  0
 17 18  2  0
 12 19  1  0
 19 20  1  0
 20 21  1  0
 21 22  1  0
 22 23  1  0
 11  4  1  0
 23 12  1  0
 10  6  1  0
 18 13  1  0
M  END
>  <ref_pdb>  (73) 
x0554_0A

>  <ref_mols>  (73) 
x0310_0A,x0566_0A

>  <original SMILES>  (73) 
O=C(Nc1cc2n(n1)CCC2)C1(c2ccccc2)CCOCC1

>  <rationale>  (73) 
-1

>  <IC50 (nM)>  (73) 
2188.215046587129

>  <CNNaffinity>  (73) 
5.65991

$$$$
Z2648685263
     RDKit          3D

 23 25  0  0  0  0  0  0  0  0999 V2000
   12.6498   13.4434   19.5318 C   0  0  0  0  0  0  0  0  0  0  0  0
   11.3601   14.2105   19.4976 C   0  0  0  0  0  0  0  0  0  0  0  0
   11.0055   15.2154   18.6291 C   0  0  0  0  0  0  0  0  0  0  0  0
    9.8893   15.8013   19.1201 N   0  0  0  0  0  0  0  0  0  0  0  0
    9.3099   17.0425   18.6535 C   0  0  0  0  0  0  0  0  0  0  0  0
    9.4488   15.2089   20.2487 N   0  0  0  0  0  0  0  0  0  0  0  0
   10.3305   14.2485   20.4717 C   0  0  0  0  0  0  0  0  0  0  0  0
   10.2691   13.3578   21.5315 N   0  0  0  0  0  0  0  0  0  0  0  0
    9.4731   13.4915   22.6420 C   0  0  0  0  0  0  0  0  0  0  0  0
    8.8340   14.4965   22.8506 O   0  0  0  0  0  0  0  0  0  0  0  0
    9.4456   12.2807   23.6505 C   0  0  0  0  0  0  0  0  0  0  0  0
   10.4103   12.6582   24.8053 C   0  0  0  0  0  0  0  0  0  0  0  0
    9.9587   13.0857   26.0642 C   0  0  0  0  0  0  0  0  0  0  0  0
   10.8542   13.2962   27.1178 C   0  0  0  0  0  0  0  0  0  0  0  0
   12.2279   13.1276   26.9278 C   0  0  0  0  0  0  0  0  0  0  0  0
   12.6859   12.7730   25.6580 C   0  0  0  0  0  0  0  0  0  0  0  0
   14.3972   12.5886   25.3919 Cl  0  0  0  0  0  0  0  0  0  0  0  0
   11.8010   12.5615   24.5995 C   0  0  0  0  0  0  0  0  0  0  0  0
    9.8539   10.8841   23.0594 C   0  0  0  0  0  0  0  0  0  0  0  0
    9.6220    9.7782   24.0922 C   0  0  0  0  0  0  0  0  0  0  0  0
    8.2518    9.6913   24.4428 O   0  0  0  0  0  0  0  0  0  0  0  0
    7.7397   10.8834   25.0120 C   0  0  0  0  0  0  0  0  0  0  0  0
    7.9510   12.0979   24.0990 C   0  0  0  0  0  0  0  0  0  0  0  0
  1  2  1  0
  2  3  2  0
  3  4  1  0
  4  5  1  0
  4  6  1  0
  6  7  2  0
  7  8  1  0
  8  9  1  0
  9 10  2  0
  9 11  1  0
 11 12  1  0
 12 13  2  0
 13 14  1  0
 14 15  2  0
 15 16  1  0
 16 17  1  0
 16 18  2  0
 11 19  1  0
 19 20  1  0
 20 21  1  0
 21 22  1  0
 22 23  1  0
  7  2  1  0
 23 11  1  0
 18 12  1  0
M  END
>  <ref_pdb>  (74) 
x0554_0A

>  <ref_mols>  (74) 
x0310_0A,x0566_0A

>  <original SMILES>  (74) 
Cc1cn(C)nc1NC(=O)C1(c2cccc(Cl)c2)CCOCC1

>  <rationale>  (74) 
-1

>  <IC50 (nM)>  (74) 
2191.4420966432604

>  <CNNaffinity>  (74) 
5.65927

$$$$
Z816552512
     RDKit          3D

 23 25  0  0  0  0  0  0  0  0999 V2000
    8.8136   14.0998   22.4329 O   0  0  0  0  0  0  0  0  0  0  0  0
    9.6622   13.2330   22.6024 C   0  0  0  0  0  0  0  0  0  0  0  0
   10.7639   13.2239   21.7820 N   0  0  0  0  0  0  0  0  0  0  0  0
   10.7562   13.8826   20.5802 C   0  0  0  0  0  0  0  0  0  0  0  0
   11.8845   13.8431   19.7689 C   0  0  0  0  0  0  0  0  0  0  0  0
   11.8585   14.4355   18.5021 C   0  0  0  0  0  0  0  0  0  0  0  0
   10.6685   15.0397   18.1118 C   0  0  0  0  0  0  0  0  0  0  0  0
   10.5119   15.8473   16.3850 Br  0  0  0  0  0  0  0  0  0  0  0  0
    9.5850   15.0258   18.9976 C   0  0  0  0  0  0  0  0  0  0  0  0
    9.6219   14.4590   20.2064 N   0  0  0  0  0  0  0  0  0  0  0  0
    9.4800   12.1309   23.6781 C   0  0  0  0  0  0  0  0  0  0  0  0
   10.4405   12.4454   24.8155 C   0  0  0  0  0  0  0  0  0  0  0  0
    9.9827   12.8595   26.0749 C   0  0  0  0  0  0  0  0  0  0  0  0
   10.8898   13.1045   27.1124 C   0  0  0  0  0  0  0  0  0  0  0  0
   12.2607   12.9302   26.9084 C   0  0  0  0  0  0  0  0  0  0  0  0
   13.3877   13.1997   28.2080 Cl  0  0  0  0  0  0  0  0  0  0  0  0
   12.7249   12.5556   25.6477 C   0  0  0  0  0  0  0  0  0  0  0  0
   11.8220   12.3318   24.6039 C   0  0  0  0  0  0  0  0  0  0  0  0
    9.8179   10.7111   23.1420 C   0  0  0  0  0  0  0  0  0  0  0  0
    9.5181    9.6438   24.2051 C   0  0  0  0  0  0  0  0  0  0  0  0
    8.1315    9.6949   24.5629 O   0  0  0  0  0  0  0  0  0  0  0  0
    7.7561   10.9501   25.1440 C   0  0  0  0  0  0  0  0  0  0  0  0
    7.9992   12.0868   24.1472 C   0  0  0  0  0  0  0  0  0  0  0  0
  1  2  2  0
  2  3  1  0
  3  4  1  0
  4  5  2  0
  5  6  1  0
  6  7  2  0
  7  8  1  0
  7  9  1  0
  9 10  2  0
  2 11  1  0
 11 12  1  0
 12 13  2  0
 13 14  1  0
 14 15  2  0
 15 16  1  0
 15 17  1  0
 17 18  2  0
 11 19  1  0
 19 20  1  0
 20 21  1  0
 21 22  1  0
 22 23  1  0
 10  4  1  0
 23 11  1  0
 18 12  1  0
M  END
>  <ref_pdb>  (75) 
x0554_0A

>  <ref_mols>  (75) 
x0310_0A,x0566_0A

>  <original SMILES>  (75) 
O=C(Nc1ccc(Br)cn1)C1(c2ccc(Cl)cc2)CCOCC1

>  <rationale>  (75) 
-1

>  <IC50 (nM)>  (75) 
2203.484500541385

>  <CNNaffinity>  (75) 
5.65689

$$$$
Z3206971508
     RDKit          3D

 23 25  0  0  0  0  0  0  0  0999 V2000
   12.2030   14.8408   21.1690 C   0  0  0  0  0  0  0  0  0  0  0  0
   10.8912   14.2871   20.6108 C   0  0  1  0  0  0  0  0  0  0  0  0
   11.0383   13.7955   19.1614 C   0  0  0  0  0  0  0  0  0  0  0  0
   11.0955   14.8757   18.0892 C   0  0  0  0  0  0  0  0  0  0  0  0
   10.5926   14.5469   16.7102 C   0  0  0  0  0  0  0  0  0  0  0  0
    9.8678   15.5615   17.5551 C   0  0  0  0  0  0  0  0  0  0  0  0
   10.4444   13.1933   21.4731 N   0  0  0  0  0  0  0  0  0  0  0  0
    9.6378   13.3878   22.5578 C   0  0  0  0  0  0  0  0  0  0  0  0
    9.0026   14.4213   22.6986 O   0  0  0  0  0  0  0  0  0  0  0  0
    9.5184   12.2308   23.6404 C   0  0  0  0  0  0  0  0  0  0  0  0
   10.4688   12.5998   24.8087 C   0  0  0  0  0  0  0  0  0  0  0  0
   10.0559   12.9367   26.1091 C   0  0  0  0  0  0  0  0  0  0  0  0
   10.9662   13.0817   27.1632 C   0  0  0  0  0  0  0  0  0  0  0  0
   12.3229   12.9331   26.9009 C   0  0  0  0  0  0  0  0  0  0  0  0
   13.2014   13.0400   27.9084 F   0  0  0  0  0  0  0  0  0  0  0  0
   12.8025   12.7014   25.6187 C   0  0  0  0  0  0  0  0  0  0  0  0
   11.8581   12.5658   24.6090 C   0  0  0  0  0  0  0  0  0  0  0  0
   12.3363   12.4128   23.3492 F   0  0  0  0  0  0  0  0  0  0  0  0
    9.8789   10.7858   23.1314 C   0  0  0  0  0  0  0  0  0  0  0  0
    9.5028    9.7263   24.1778 C   0  0  0  0  0  0  0  0  0  0  0  0
    8.1163    9.7485   24.4645 O   0  0  0  0  0  0  0  0  0  0  0  0
    7.6817   10.9856   24.9990 C   0  0  0  0  0  0  0  0  0  0  0  0
    8.0065   12.1561   24.0603 C   0  0  0  0  0  0  0  0  0  0  0  0
  2  1  1  1
  2  3  1  0
  3  4  1  0
  4  5  1  0
  5  6  1  0
  2  7  1  0
  7  8  1  0
  8  9  2  0
  8 10  1  0
 10 11  1  0
 11 12  2  0
 12 13  1  0
 13 14  2  0
 14 15  1  0
 14 16  1  0
 16 17  2  0
 17 18  1  0
 10 19  1  0
 19 20  1  0
 20 21  1  0
 21 22  1  0
 22 23  1  0
  6  4  1  0
 23 10  1  0
 17 11  1  0
M  END
>  <ref_pdb>  (76) 
x0554_0A

>  <ref_mols>  (76) 
x0310_0A,x0566_0A

>  <original SMILES>  (76) 
C[C@@H](CC1CC1)NC(=O)C1(c2ccc(F)cc2F)CCOCC1

>  <rationale>  (76) 
-1

>  <IC50 (nM)>  (76) 
2205.514919665848

>  <CNNaffinity>  (76) 
5.65649

$$$$
Z1368481318
     RDKit          3D

 22 24  0  0  0  0  0  0  0  0999 V2000
   12.1718   15.3753   17.8062 C   0  0  0  0  0  0  0  0  0  0  0  0
   11.8557   14.5224   19.0272 C   0  0  2  0  0  0  0  0  0  0  0  0
   10.4245   13.9316   19.0936 C   0  0  0  0  0  0  0  0  0  0  0  0
   10.2213   14.4715   20.5203 C   0  0  1  0  0  0  0  0  0  0  0  0
   10.1935   13.4195   21.5089 N   0  0  0  0  0  0  0  0  0  0  0  0
    9.5346   13.5170   22.7013 C   0  0  0  0  0  0  0  0  0  0  0  0
    8.8922   14.5195   22.9775 O   0  0  0  0  0  0  0  0  0  0  0  0
    9.5509   12.2893   23.7095 C   0  0  0  0  0  0  0  0  0  0  0  0
   10.5254   12.6647   24.8594 C   0  0  0  0  0  0  0  0  0  0  0  0
   10.0775   12.9573   26.1639 C   0  0  0  0  0  0  0  0  0  0  0  0
   10.9430   13.0769   27.2534 C   0  0  0  0  0  0  0  0  0  0  0  0
   12.3156   12.9463   27.0447 C   0  0  0  0  0  0  0  0  0  0  0  0
   13.4278   13.0162   28.3739 Cl  0  0  0  0  0  0  0  0  0  0  0  0
   12.8187   12.7967   25.7572 C   0  0  0  0  0  0  0  0  0  0  0  0
   11.9278   12.7118   24.6838 C   0  0  0  0  0  0  0  0  0  0  0  0
   12.7008   12.7751   23.1202 Cl  0  0  0  0  0  0  0  0  0  0  0  0
    9.9484   10.8737   23.1356 C   0  0  0  0  0  0  0  0  0  0  0  0
    9.6278    9.7557   24.1439 C   0  0  0  0  0  0  0  0  0  0  0  0
    8.2471    9.7089   24.4506 O   0  0  0  0  0  0  0  0  0  0  0  0
    7.7817   10.9048   25.0427 C   0  0  0  0  0  0  0  0  0  0  0  0
    8.0514   12.1303   24.1680 C   0  0  0  0  0  0  0  0  0  0  0  0
   11.5707   15.2359   20.3807 C   0  0  0  0  0  0  0  0  0  0  0  0
  2  1  1  6
  2  3  1  0
  3  4  1  0
  4  5  1  1
  5  6  1  0
  6  7  2  0
  6  8  1  0
  8  9  1  0
  9 10  2  0
 10 11  1  0
 11 12  2  0
 12 13  1  0
 12 14  1  0
 14 15  2  0
 15 16  1  0
  8 17  1  0
 17 18  1  0
 18 19  1  0
 19 20  1  0
 20 21  1  0
  4 22  1  0
 22  2  1  0
 21  8  1  0
 15  9  1  0
M  END
>  <ref_pdb>  (77) 
x0554_0A

>  <ref_mols>  (77) 
x0310_0A,x0566_0A

>  <original SMILES>  (77) 
C[C@H]1C[C@H](NC(=O)C2(c3ccc(Cl)cc3Cl)CCOCC2)C1

>  <rationale>  (77) 
-1

>  <IC50 (nM)>  (77) 
2207.3947230447543

>  <CNNaffinity>  (77) 
5.65612

$$$$
Z1030477284
     RDKit          3D

 23 25  0  0  0  0  0  0  0  0999 V2000
    8.5577   14.7962   20.2589 O   0  0  0  0  0  0  0  0  0  0  0  0
    9.7012   14.7723   19.8214 C   0  0  0  0  0  0  0  0  0  0  0  0
    9.9204   15.4921   18.4934 C   0  0  0  0  0  0  0  0  0  0  0  0
   11.3599   15.9682   18.3253 C   0  0  0  0  0  0  0  0  0  0  0  0
   12.3088   14.8165   18.6486 C   0  0  0  0  0  0  0  0  0  0  0  0
   12.1282   14.3188   20.0955 C   0  0  0  0  0  0  0  0  0  0  0  0
   10.7349   14.0797   20.4844 N   0  0  0  0  0  0  0  0  0  0  0  0
   10.5507   13.1988   21.6315 N   0  0  0  0  0  0  0  0  0  0  0  0
    9.6203   13.3111   22.6742 C   0  0  0  0  0  0  0  0  0  0  0  0
    8.8940   14.2973   22.7310 O   0  0  0  0  0  0  0  0  0  0  0  0
    9.4747   12.1699   23.7263 C   0  0  0  0  0  0  0  0  0  0  0  0
   10.4413   12.4833   24.8639 C   0  0  0  0  0  0  0  0  0  0  0  0
    9.9988   12.8626   26.1412 C   0  0  0  0  0  0  0  0  0  0  0  0
   10.9137   13.1099   27.1731 C   0  0  0  0  0  0  0  0  0  0  0  0
   12.2864   12.9759   26.9476 C   0  0  0  0  0  0  0  0  0  0  0  0
   13.5365   13.2502   28.3689 Br  0  0  0  0  0  0  0  0  0  0  0  0
   12.7386   12.6206   25.6752 C   0  0  0  0  0  0  0  0  0  0  0  0
   11.8229   12.3808   24.6436 C   0  0  0  0  0  0  0  0  0  0  0  0
    9.8396   10.7769   23.1421 C   0  0  0  0  0  0  0  0  0  0  0  0
    9.6140    9.6605   24.1707 C   0  0  0  0  0  0  0  0  0  0  0  0
    8.2426    9.6483   24.5877 O   0  0  0  0  0  0  0  0  0  0  0  0
    7.8287   10.8748   25.2012 C   0  0  0  0  0  0  0  0  0  0  0  0
    8.0059   12.0470   24.2259 C   0  0  0  0  0  0  0  0  0  0  0  0
  1  2  2  0
  2  3  1  0
  3  4  1  0
  4  5  1  0
  5  6  1  0
  6  7  1  0
  7  8  1  0
  8  9  1  0
  9 10  2  0
  9 11  1  0
 11 12  1  0
 12 13  2  0
 13 14  1  0
 14 15  2  0
 15 16  1  0
 15 17  1  0
 17 18  2  0
 11 19  1  0
 19 20  1  0
 20 21  1  0
 21 22  1  0
 22 23  1  0
  7  2  1  0
 23 11  1  0
 18 12  1  0
M  END
>  <ref_pdb>  (78) 
x0554_0A

>  <ref_mols>  (78) 
x0310_0A,x0566_0A

>  <original SMILES>  (78) 
O=C1CCCCN1NC(=O)C1(c2ccc(Br)cc2)CCOCC1

>  <rationale>  (78) 
-1

>  <IC50 (nM)>  (78) 
2210.7518646942667

>  <CNNaffinity>  (78) 
5.65546

$$$$
Z5600386214
     RDKit          3D

 23 25  0  0  0  0  0  0  0  0999 V2000
   10.1109   13.2575   21.5875 O   0  0  0  0  0  0  0  0  0  0  0  0
    9.9392   13.5729   22.7552 C   0  0  0  0  0  0  0  0  0  0  0  0
    9.7900   14.8776   23.1217 N   0  0  0  0  0  0  0  0  0  0  0  0
    9.8141   15.9896   22.1820 C   0  0  1  0  0  0  0  0  0  0  0  0
   11.1126   16.2100   21.3606 C   0  0  0  0  0  0  0  0  0  0  0  0
   10.2983   16.1321   20.0359 C   0  0  1  0  0  0  0  0  0  0  0  0
   10.7261   15.0338   19.0678 C   0  0  0  0  0  0  0  0  0  0  0  0
   12.3215   15.3770   18.2602 S   0  0  0  0  0  0  0  0  0  0  0  0
    9.0100   15.8535   20.8629 C   0  0  0  0  0  0  0  0  0  0  0  0
    9.7717   12.4824   23.8870 C   0  0  0  0  0  0  0  0  0  0  0  0
   10.6577   12.8489   25.1003 C   0  0  0  0  0  0  0  0  0  0  0  0
   10.1530   13.0330   26.4014 C   0  0  0  0  0  0  0  0  0  0  0  0
   10.9820   13.1937   27.5116 C   0  0  0  0  0  0  0  0  0  0  0  0
   12.3676   13.1745   27.3447 C   0  0  0  0  0  0  0  0  0  0  0  0
   13.4231   13.2469   28.7214 Cl  0  0  0  0  0  0  0  0  0  0  0  0
   12.9180   13.0947   26.0699 C   0  0  0  0  0  0  0  0  0  0  0  0
   12.0631   12.9854   24.9709 C   0  0  0  0  0  0  0  0  0  0  0  0
   12.8415   13.0738   23.4161 Cl  0  0  0  0  0  0  0  0  0  0  0  0
   10.1816   11.0676   23.3451 C   0  0  0  0  0  0  0  0  0  0  0  0
    9.6802    9.9292   24.2333 C   0  0  0  0  0  0  0  0  0  0  0  0
    8.2691    9.9432   24.3449 O   0  0  0  0  0  0  0  0  0  0  0  0
    7.7972   11.1283   24.9559 C   0  0  0  0  0  0  0  0  0  0  0  0
    8.2266   12.3927   24.1934 C   0  0  0  0  0  0  0  0  0  0  0  0
  1  2  2  0
  2  3  1  0
  4  3  1  6
  4  5  1  0
  5  6  1  0
  6  7  1  6
  7  8  1  0
  6  9  1  0
  2 10  1  0
 10 11  1  0
 11 12  2  0
 12 13  1  0
 13 14  2  0
 14 15  1  0
 14 16  1  0
 16 17  2  0
 17 18  1  0
 10 19  1  0
 19 20  1  0
 20 21  1  0
 21 22  1  0
 22 23  1  0
  9  4  1  0
 23 10  1  0
 17 11  1  0
M  END
>  <ref_pdb>  (79) 
x0554_0A

>  <ref_mols>  (79) 
x0310_0A,x0566_0A

>  <original SMILES>  (79) 
O=C(N[C@H]1C[C@@H](CS)C1)C1(c2ccc(Cl)cc2Cl)CCOCC1

>  <rationale>  (79) 
-1

>  <IC50 (nM)>  (79) 
2213.655322877577

>  <CNNaffinity>  (79) 
5.65489

$$$$
Z5539448712
     RDKit          3D

 23 25  0  0  0  0  0  0  0  0999 V2000
   11.7262   16.3476   18.7996 C   0  0  0  0  0  0  0  0  0  0  0  0
   11.3164   14.9766   18.2684 C   0  0  2  0  0  0  0  0  0  0  0  0
    9.7443   15.1596   17.3439 S   0  0  0  0  0  0  0  0  0  0  0  0
   11.2277   13.9047   19.3702 C   0  0  0  0  0  0  0  0  0  0  0  0
   10.3396   14.2651   20.5553 C   0  0  0  0  0  0  0  0  0  0  0  0
   10.4012   13.2438   21.5931 N   0  0  0  0  0  0  0  0  0  0  0  0
    9.6168   13.3386   22.7079 C   0  0  0  0  0  0  0  0  0  0  0  0
    8.9682   14.3544   22.9044 O   0  0  0  0  0  0  0  0  0  0  0  0
    9.5277   12.1407   23.7289 C   0  0  0  0  0  0  0  0  0  0  0  0
   10.4938   12.4868   24.8905 C   0  0  0  0  0  0  0  0  0  0  0  0
   10.0619   12.9511   26.1400 C   0  0  0  0  0  0  0  0  0  0  0  0
   10.9561   13.1561   27.2150 C   0  0  0  0  0  0  0  0  0  0  0  0
   12.2936   12.9033   26.9810 C   0  0  0  0  0  0  0  0  0  0  0  0
   13.3453   12.9760   27.8505 O   0  0  0  0  0  0  0  0  0  0  0  0
   14.5115   12.6859   27.0822 C   0  0  0  0  0  0  0  0  0  0  0  0
   14.1063   12.3450   25.7574 O   0  0  0  0  0  0  0  0  0  0  0  0
   12.7535   12.5254   25.7209 C   0  0  0  0  0  0  0  0  0  0  0  0
   11.8881   12.3365   24.6628 C   0  0  0  0  0  0  0  0  0  0  0  0
    9.8804   10.7176   23.1635 C   0  0  0  0  0  0  0  0  0  0  0  0
    9.5751    9.6377   24.2143 C   0  0  0  0  0  0  0  0  0  0  0  0
    8.1945    9.6091   24.5309 O   0  0  0  0  0  0  0  0  0  0  0  0
    7.7189   10.8267   25.0752 C   0  0  0  0  0  0  0  0  0  0  0  0
    8.0169   12.0234   24.1597 C   0  0  0  0  0  0  0  0  0  0  0  0
  2  1  1  1
  2  3  1  0
  2  4  1  0
  4  5  1  0
  5  6  1  0
  6  7  1  0
  7  8  2  0
  7  9  1  0
  9 10  1  0
 10 11  2  0
 11 12  1  0
 12 13  2  0
 13 14  1  0
 14 15  1  0
 15 16  1  0
 16 17  1  0
 17 18  2  0
  9 19  1  0
 19 20  1  0
 20 21  1  0
 21 22  1  0
 22 23  1  0
 23  9  1  0
 18 10  1  0
 17 13  1  0
M  END
>  <ref_pdb>  (80) 
x0554_0A

>  <ref_mols>  (80) 
x0310_0A,x0566_0A

>  <original SMILES>  (80) 
C[C@H](S)CCNC(=O)C1(c2ccc3c(c2)OCO3)CCOCC1

>  <rationale>  (80) 
-1

>  <IC50 (nM)>  (80) 
2217.736784686706

>  <CNNaffinity>  (80) 
5.65409

$$$$
Z4646080163
     RDKit          3D

 23 25  0  0  0  0  0  0  0  0999 V2000
   11.9614   15.5457   17.7038 C   0  0  0  0  0  0  0  0  0  0  0  0
   11.0418   15.0678   18.5750 C   0  0  0  0  0  0  0  0  0  0  0  0
    9.7079   15.3413   18.2805 N   0  0  0  0  0  0  0  0  0  0  0  0
    8.8379   14.9540   19.1619 C   0  0  0  0  0  0  0  0  0  0  0  0
    9.0549   14.4282   20.3720 N   0  0  0  0  0  0  0  0  0  0  0  0
   10.3005   14.0521   20.5937 C   0  0  0  0  0  0  0  0  0  0  0  0
   10.4827   13.2920   21.7447 N   0  0  0  0  0  0  0  0  0  0  0  0
    9.6082   13.3773   22.8184 C   0  0  0  0  0  0  0  0  0  0  0  0
    9.0084   14.4008   23.0489 O   0  0  0  0  0  0  0  0  0  0  0  0
    9.4750   12.1392   23.7867 C   0  0  0  0  0  0  0  0  0  0  0  0
   10.4375   12.4609   24.9584 C   0  0  0  0  0  0  0  0  0  0  0  0
   10.0177   12.9443   26.2092 C   0  0  0  0  0  0  0  0  0  0  0  0
   10.9427   13.1856   27.2329 C   0  0  0  0  0  0  0  0  0  0  0  0
   12.3078   12.9718   27.0178 C   0  0  0  0  0  0  0  0  0  0  0  0
   12.7453   12.5510   25.7587 C   0  0  0  0  0  0  0  0  0  0  0  0
   11.8193   12.3296   24.7382 C   0  0  0  0  0  0  0  0  0  0  0  0
    9.8101   10.7407   23.1597 C   0  0  0  0  0  0  0  0  0  0  0  0
    9.5244    9.6225   24.1683 C   0  0  0  0  0  0  0  0  0  0  0  0
    8.1550    9.5981   24.5291 O   0  0  0  0  0  0  0  0  0  0  0  0
    7.7001   10.8073   25.1098 C   0  0  0  0  0  0  0  0  0  0  0  0
    7.9716   12.0249   24.2158 C   0  0  0  0  0  0  0  0  0  0  0  0
   11.3649   14.2760   19.7388 C   0  0  0  0  0  0  0  0  0  0  0  0
   12.7437   13.7261   19.9495 C   0  0  0  0  0  0  0  0  0  0  0  0
  1  2  1  0
  2  3  2  0
  3  4  1  0
  4  5  2  0
  5  6  1  0
  6  7  1  0
  7  8  1  0
  8  9  2  0
  8 10  1  0
 10 11  1  0
 11 12  2  0
 12 13  1  0
 13 14  2  0
 14 15  1  0
 15 16  2  0
 10 17  1  0
 17 18  1  0
 18 19  1  0
 19 20  1  0
 20 21  1  0
  6 22  2  0
 22 23  1  0
 22  2  1  0
 21 10  1  0
 16 11  1  0
M  END
>  <ref_pdb>  (81) 
x0554_0A

>  <ref_mols>  (81) 
x0310_0A,x0566_0A

>  <original SMILES>  (81) 
Cc1ncnc(NC(=O)C2(c3ccccc3)CCOCC2)c1C

>  <rationale>  (81) 
-1

>  <IC50 (nM)>  (81) 
2231.053578797642

>  <CNNaffinity>  (81) 
5.65149

$$$$
Z2873191604
     RDKit          3D

 23 25  0  0  0  0  0  0  0  0999 V2000
   11.3408   15.5013   17.3609 C   0  0  0  0  0  0  0  0  0  0  0  0
   10.7518   15.0203   18.6412 C   0  0  0  0  0  0  0  0  0  0  0  0
   11.2916   14.2722   19.6343 C   0  0  0  0  0  0  0  0  0  0  0  0
   12.6950   13.7676   19.7593 C   0  0  0  0  0  0  0  0  0  0  0  0
   10.1965   14.1069   20.5221 C   0  0  0  0  0  0  0  0  0  0  0  0
   10.2879   13.2768   21.6322 N   0  0  0  0  0  0  0  0  0  0  0  0
    9.5072   13.3986   22.7584 C   0  0  0  0  0  0  0  0  0  0  0  0
    8.9030   14.4214   22.9863 O   0  0  0  0  0  0  0  0  0  0  0  0
    9.4450   12.1759   23.7544 C   0  0  0  0  0  0  0  0  0  0  0  0
   10.4124   12.5360   24.9108 C   0  0  0  0  0  0  0  0  0  0  0  0
    9.9896   13.0096   26.1659 C   0  0  0  0  0  0  0  0  0  0  0  0
   10.9131   13.2319   27.1958 C   0  0  0  0  0  0  0  0  0  0  0  0
   12.2791   13.0213   26.9881 C   0  0  0  0  0  0  0  0  0  0  0  0
   12.6950   12.6358   25.7176 C   0  0  0  0  0  0  0  0  0  0  0  0
   14.0071   12.4608   25.4836 F   0  0  0  0  0  0  0  0  0  0  0  0
   11.7946   12.4164   24.6810 C   0  0  0  0  0  0  0  0  0  0  0  0
    9.8287   10.7759   23.1524 C   0  0  0  0  0  0  0  0  0  0  0  0
    9.5585    9.6600   24.1698 C   0  0  0  0  0  0  0  0  0  0  0  0
    8.1849    9.6033   24.5100 O   0  0  0  0  0  0  0  0  0  0  0  0
    7.6957   10.8001   25.0874 C   0  0  0  0  0  0  0  0  0  0  0  0
    7.9465   12.0229   24.1960 C   0  0  0  0  0  0  0  0  0  0  0  0
    9.1112   14.7193   20.1290 N   0  0  0  0  0  0  0  0  0  0  0  0
    9.4680   15.2970   18.9152 O   0  0  0  0  0  0  0  0  0  0  0  0
  1  2  1  0
  2  3  2  0
  3  4  1  0
  3  5  1  0
  5  6  1  0
  6  7  1  0
  7  8  2  0
  7  9  1  0
  9 10  1  0
 10 11  2  0
 11 12  1  0
 12 13  2  0
 13 14  1  0
 14 15  1  0
 14 16  2  0
  9 17  1  0
 17 18  1  0
 18 19  1  0
 19 20  1  0
 20 21  1  0
  5 22  2  0
 22 23  1  0
 23  2  1  0
 21  9  1  0
 16 10  1  0
M  END
>  <ref_pdb>  (82) 
x0554_0A

>  <ref_mols>  (82) 
x0310_0A,x0566_0A

>  <original SMILES>  (82) 
Cc1onc(NC(=O)C2(c3cccc(F)c3)CCOCC2)c1C

>  <rationale>  (82) 
-1

>  <IC50 (nM)>  (82) 
2231.207699842098

>  <CNNaffinity>  (82) 
5.65146

$$$$
Z2407985821
     RDKit          3D

 23 25  0  0  0  0  0  0  0  0999 V2000
   12.5456   13.4838   19.4502 O   0  0  0  0  0  0  0  0  0  0  0  0
   11.5371   14.1612   19.5017 C   0  0  0  0  0  0  0  0  0  0  0  0
   10.5136   14.0226   20.4036 N   0  0  0  0  0  0  0  0  0  0  0  0
   10.6290   13.2764   21.6050 N   0  0  0  0  0  0  0  0  0  0  0  0
    9.6152   13.3376   22.5481 C   0  0  0  0  0  0  0  0  0  0  0  0
    8.8129   14.2556   22.5442 O   0  0  0  0  0  0  0  0  0  0  0  0
    9.5541   12.1904   23.6284 C   0  0  0  0  0  0  0  0  0  0  0  0
   10.4857   12.6109   24.8041 C   0  0  0  0  0  0  0  0  0  0  0  0
   10.0237   13.0301   26.0637 C   0  0  0  0  0  0  0  0  0  0  0  0
   10.9119   13.2763   27.1199 C   0  0  0  0  0  0  0  0  0  0  0  0
   12.2898   13.1256   26.9405 C   0  0  0  0  0  0  0  0  0  0  0  0
   12.7726   12.7697   25.6778 C   0  0  0  0  0  0  0  0  0  0  0  0
   11.8825   12.5417   24.6231 C   0  0  0  0  0  0  0  0  0  0  0  0
    9.9792   10.7619   23.1121 C   0  0  0  0  0  0  0  0  0  0  0  0
    9.6619    9.7005   24.1756 C   0  0  0  0  0  0  0  0  0  0  0  0
    8.2714    9.6449   24.4439 O   0  0  0  0  0  0  0  0  0  0  0  0
    7.7527   10.8566   24.9608 C   0  0  0  0  0  0  0  0  0  0  0  0
    8.0436   12.0441   24.0370 C   0  0  0  0  0  0  0  0  0  0  0  0
   11.2721   15.2584   18.4624 C   0  0  1  0  0  0  0  0  0  0  0  0
   10.2476   14.9084   17.3746 C   0  0  0  0  0  0  0  0  0  0  0  0
   10.1054   16.1867   16.5438 C   0  0  0  0  0  0  0  0  0  0  0  0
    9.9787   17.3840   17.5037 C   0  0  0  0  0  0  0  0  0  0  0  0
   10.7230   16.8952   19.0974 S   0  0  0  0  0  0  0  0  0  0  0  0
  1  2  2  0
  2  3  1  0
  3  4  1  0
  4  5  1  0
  5  6  2  0
  5  7  1  0
  7  8  1  0
  8  9  2  0
  9 10  1  0
 10 11  2  0
 11 12  1  0
 12 13  2  0
  7 14  1  0
 14 15  1  0
 15 16  1  0
 16 17  1  0
 17 18  1  0
 19  2  1  1
 19 20  1  0
 20 21  1  0
 21 22  1  0
 22 23  1  0
 18  7  1  0
 23 19  1  0
 13  8  1  0
M  END
>  <ref_pdb>  (83) 
x0554_0A

>  <ref_mols>  (83) 
x0310_0A,x0566_0A

>  <original SMILES>  (83) 
O=C(NNC(=O)C1(c2ccccc2)CCOCC1)[C@H]1CCCS1

>  <rationale>  (83) 
-1

>  <IC50 (nM)>  (83) 
2255.6411038374927

>  <CNNaffinity>  (83) 
5.64673

$$$$
Z2350695897
     RDKit          3D

 23 25  0  0  0  0  0  0  0  0999 V2000
   12.7228   13.6575   19.7383 C   0  0  0  0  0  0  0  0  0  0  0  0
   11.3452   14.2428   19.6531 C   0  0  0  0  0  0  0  0  0  0  0  0
   10.3417   14.1128   20.5467 C   0  0  0  0  0  0  0  0  0  0  0  0
   10.4224   13.3322   21.6872 N   0  0  0  0  0  0  0  0  0  0  0  0
    9.4172   13.2767   22.6241 C   0  0  0  0  0  0  0  0  0  0  0  0
    8.5065   14.0931   22.5234 O   0  0  0  0  0  0  0  0  0  0  0  0
    9.3833   12.1633   23.7159 C   0  0  0  0  0  0  0  0  0  0  0  0
   10.3824   12.5053   24.8232 C   0  0  0  0  0  0  0  0  0  0  0  0
    9.9576   12.8960   26.1044 C   0  0  0  0  0  0  0  0  0  0  0  0
   10.8827   13.1287   27.1311 C   0  0  0  0  0  0  0  0  0  0  0  0
   12.2516   12.9720   26.8982 C   0  0  0  0  0  0  0  0  0  0  0  0
   13.5147   13.2355   28.3087 Br  0  0  0  0  0  0  0  0  0  0  0  0
   12.6904   12.6163   25.6209 C   0  0  0  0  0  0  0  0  0  0  0  0
   11.7646   12.3942   24.5924 C   0  0  0  0  0  0  0  0  0  0  0  0
    9.7616   10.7581   23.1626 C   0  0  0  0  0  0  0  0  0  0  0  0
    9.5400    9.6549   24.2107 C   0  0  0  0  0  0  0  0  0  0  0  0
    8.1688    9.6422   24.6253 O   0  0  0  0  0  0  0  0  0  0  0  0
    7.7626   10.8721   25.2371 C   0  0  0  0  0  0  0  0  0  0  0  0
    7.9304   12.0367   24.2563 C   0  0  0  0  0  0  0  0  0  0  0  0
    9.2306   14.7971   20.0917 N   0  0  0  0  0  0  0  0  0  0  0  0
    9.5174   15.3248   18.9447 N   0  0  0  0  0  0  0  0  0  0  0  0
   10.8094   15.0142   18.6475 N   0  0  0  0  0  0  0  0  0  0  0  0
   11.5086   15.4185   17.4231 C   0  0  0  0  0  0  0  0  0  0  0  0
  1  2  1  0
  2  3  2  0
  3  4  1  0
  4  5  1  0
  5  6  2  0
  5  7  1  0
  7  8  1  0
  8  9  2  0
  9 10  1  0
 10 11  2  0
 11 12  1  0
 11 13  1  0
 13 14  2  0
  7 15  1  0
 15 16  1  0
 16 17  1  0
 17 18  1  0
 18 19  1  0
  3 20  1  0
 20 21  2  0
 21 22  1  0
 22 23  1  0
 22  2  1  0
 19  7  1  0
 14  8  1  0
M  END
>  <ref_pdb>  (84) 
x0554_0A

>  <ref_mols>  (84) 
x0310_0A,x0566_0A

>  <original SMILES>  (84) 
Cc1c(NC(=O)C2(c3ccc(Br)cc3)CCOCC2)nnn1C

>  <rationale>  (84) 
-1

>  <IC50 (nM)>  (84) 
2260.892951984869

>  <CNNaffinity>  (84) 
5.64572

$$$$
Z3088884199
     RDKit          3D

 23 25  0  0  0  0  0  0  0  0999 V2000
   13.1177   15.5676   20.4057 C   0  0  0  0  0  0  0  0  0  0  0  0
   12.4540   14.4629   21.2243 C   0  0  0  0  0  0  0  0  0  0  0  0
   10.9185   14.4638   21.2127 C   0  0  2  0  0  0  0  0  0  0  0  0
   10.5026   13.2932   21.9773 N   0  0  0  0  0  0  0  0  0  0  0  0
    9.4645   13.2867   22.8590 C   0  0  0  0  0  0  0  0  0  0  0  0
    8.6420   14.1902   22.8564 O   0  0  0  0  0  0  0  0  0  0  0  0
    9.4062   12.0984   23.8785 C   0  0  0  0  0  0  0  0  0  0  0  0
   10.3753   12.4645   25.0370 C   0  0  0  0  0  0  0  0  0  0  0  0
    9.9344   12.9456   26.2809 C   0  0  0  0  0  0  0  0  0  0  0  0
   10.8406   13.2393   27.3053 C   0  0  0  0  0  0  0  0  0  0  0  0
   12.2127   13.0583   27.1201 C   0  0  0  0  0  0  0  0  0  0  0  0
   12.6454   12.5984   25.8821 C   0  0  0  0  0  0  0  0  0  0  0  0
   13.9639   12.4144   25.6907 F   0  0  0  0  0  0  0  0  0  0  0  0
   11.7643   12.3269   24.8405 C   0  0  0  0  0  0  0  0  0  0  0  0
    9.8074   10.7132   23.2494 C   0  0  0  0  0  0  0  0  0  0  0  0
    9.5703    9.5888   24.2612 C   0  0  0  0  0  0  0  0  0  0  0  0
    8.2033    9.5136   24.6252 O   0  0  0  0  0  0  0  0  0  0  0  0
    7.7018   10.6980   25.2190 C   0  0  0  0  0  0  0  0  0  0  0  0
    7.9168   11.9242   24.3261 C   0  0  0  0  0  0  0  0  0  0  0  0
   10.2321   14.4948   19.8405 C   0  0  0  0  0  0  0  0  0  0  0  0
   10.8526   13.7463   18.6226 C   0  0  0  0  0  0  0  0  0  0  0  0
   10.7208   15.0325   17.7691 C   0  0  0  0  0  0  0  0  0  0  0  0
   10.2190   15.8149   19.0102 C   0  0  0  0  0  0  0  0  0  0  0  0
  1  2  1  0
  3  2  1  6
  3  4  1  0
  4  5  1  0
  5  6  2  0
  5  7  1  0
  7  8  1  0
  8  9  2  0
  9 10  1  0
 10 11  2  0
 11 12  1  0
 12 13  1  0
 12 14  2  0
  7 15  1  0
 15 16  1  0
 16 17  1  0
 17 18  1  0
 18 19  1  0
  3 20  1  0
 20 21  1  0
 21 22  1  0
 22 23  1  0
 19  7  1  0
 23 20  1  0
 14  8  1  0
M  END
>  <ref_pdb>  (85) 
x0554_0A

>  <ref_mols>  (85) 
x0310_0A,x0566_0A

>  <original SMILES>  (85) 
CC[C@H](NC(=O)C1(c2cccc(F)c2)CCOCC1)C1CCC1

>  <rationale>  (85) 
-1

>  <IC50 (nM)>  (85) 
2265.0093545472323

>  <CNNaffinity>  (85) 
5.64493

$$$$
Z2917058190
     RDKit          3D

 23 25  0  0  0  0  0  0  0  0999 V2000
   13.3659   13.3071   28.0207 C   0  0  0  0  0  0  0  0  0  0  0  0
   12.3488   13.0382   26.9387 C   0  0  0  0  0  0  0  0  0  0  0  0
   10.9768   13.2319   27.1559 C   0  0  0  0  0  0  0  0  0  0  0  0
   10.0407   12.9856   26.1434 C   0  0  0  0  0  0  0  0  0  0  0  0
   10.4448   12.5193   24.8849 C   0  0  0  0  0  0  0  0  0  0  0  0
    9.4606   12.1944   23.7348 C   0  0  0  0  0  0  0  0  0  0  0  0
    9.5643   13.4399   22.7690 C   0  0  0  0  0  0  0  0  0  0  0  0
    9.0308   14.4961   23.0022 O   0  0  0  0  0  0  0  0  0  0  0  0
   10.3779   13.2297   21.6520 N   0  0  0  0  0  0  0  0  0  0  0  0
   10.2797   14.0745   20.5544 N   0  0  0  0  0  0  0  0  0  0  0  0
    9.1184   14.5944   20.1307 N   0  0  0  0  0  0  0  0  0  0  0  0
    9.3449   15.1209   18.9708 N   0  0  0  0  0  0  0  0  0  0  0  0
   10.6514   14.9290   18.6255 C   0  0  0  0  0  0  0  0  0  0  0  0
   11.2014   15.3570   17.3046 C   0  0  0  0  0  0  0  0  0  0  0  0
   11.2790   14.2711   19.6538 C   0  0  0  0  0  0  0  0  0  0  0  0
   12.6871   13.8150   19.8096 C   0  0  0  0  0  0  0  0  0  0  0  0
    9.8146   10.7863   23.1242 C   0  0  0  0  0  0  0  0  0  0  0  0
    9.5492    9.6752   24.1461 C   0  0  0  0  0  0  0  0  0  0  0  0
    8.1774    9.6330   24.4952 O   0  0  0  0  0  0  0  0  0  0  0  0
    7.7029   10.8364   25.0716 C   0  0  0  0  0  0  0  0  0  0  0  0
    7.9647   12.0595   24.1810 C   0  0  0  0  0  0  0  0  0  0  0  0
   11.8270   12.4048   24.6462 C   0  0  0  0  0  0  0  0  0  0  0  0
   12.7590   12.6351   25.6583 C   0  0  0  0  0  0  0  0  0  0  0  0
  1  2  1  0
  2  3  2  0
  3  4  1  0
  4  5  2  0
  5  6  1  0
  6  7  1  0
  7  8  2  0
  7  9  1  0
  9 10  1  0
 10 11  1  0
 11 12  2  0
 12 13  1  0
 13 14  1  0
 13 15  2  0
 15 16  1  0
  6 17  1  0
 17 18  1  0
 18 19  1  0
 19 20  1  0
 20 21  1  0
  5 22  1  0
 22 23  2  0
 23  2  1  0
 21  6  1  0
 15 10  1  0
M  END
>  <ref_pdb>  (86) 
x0554_0A

>  <ref_mols>  (86) 
x0310_0A,x0566_0A

>  <original SMILES>  (86) 
Cc1ccc(C2(C(=O)Nn3nnc(C)c3C)CCOCC2)cc1

>  <rationale>  (86) 
-1

>  <IC50 (nM)>  (86) 
2266.1048485078363

>  <CNNaffinity>  (86) 
5.64472

$$$$
Z810065770
     RDKit          3D

 22 24  0  0  0  0  0  0  0  0999 V2000
   10.8931   14.4524   16.8675 C   0  0  0  0  0  0  0  0  0  0  0  0
   11.2922   14.8162   18.2884 C   0  0  2  0  0  0  0  0  0  0  0  0
   12.2854   14.0212   19.1121 C   0  0  0  0  0  0  0  0  0  0  0  0
   10.8153   13.9488   19.4055 C   0  0  1  0  0  0  0  0  0  0  0  0
   10.2364   14.4960   20.6732 C   0  0  0  0  0  0  0  0  0  0  0  0
   10.0585   13.3745   21.5685 N   0  0  0  0  0  0  0  0  0  0  0  0
    9.4825   13.5281   22.7839 C   0  0  0  0  0  0  0  0  0  0  0  0
    8.9323   14.5768   23.0856 O   0  0  0  0  0  0  0  0  0  0  0  0
    9.5160   12.3179   23.7773 C   0  0  0  0  0  0  0  0  0  0  0  0
   10.5130   12.7005   24.9029 C   0  0  0  0  0  0  0  0  0  0  0  0
   10.0782   12.9810   26.2124 C   0  0  0  0  0  0  0  0  0  0  0  0
   10.9584   13.1179   27.2862 C   0  0  0  0  0  0  0  0  0  0  0  0
   12.3291   13.0125   27.0545 C   0  0  0  0  0  0  0  0  0  0  0  0
   13.4444   13.0691   28.3810 Cl  0  0  0  0  0  0  0  0  0  0  0  0
   12.8164   12.8696   25.7588 C   0  0  0  0  0  0  0  0  0  0  0  0
   11.9127   12.7699   24.6967 C   0  0  0  0  0  0  0  0  0  0  0  0
   12.6581   12.8166   23.1154 Cl  0  0  0  0  0  0  0  0  0  0  0  0
    9.9231   10.9326   23.1593 C   0  0  0  0  0  0  0  0  0  0  0  0
    9.6625    9.7900   24.1439 C   0  0  0  0  0  0  0  0  0  0  0  0
    8.2861    9.6993   24.4617 O   0  0  0  0  0  0  0  0  0  0  0  0
    7.7885   10.8652   25.0925 C   0  0  0  0  0  0  0  0  0  0  0  0
    8.0252   12.1246   24.2493 C   0  0  0  0  0  0  0  0  0  0  0  0
  2  1  1  6
  2  3  1  0
  3  4  1  0
  4  5  1  1
  5  6  1  0
  6  7  1  0
  7  8  2  0
  7  9  1  0
  9 10  1  0
 10 11  2  0
 11 12  1  0
 12 13  2  0
 13 14  1  0
 13 15  1  0
 15 16  2  0
 16 17  1  0
  9 18  1  0
 18 19  1  0
 19 20  1  0
 20 21  1  0
 21 22  1  0
  4  2  1  0
 22  9  1  0
 16 10  1  0
M  END
>  <ref_pdb>  (87) 
x0554_0A

>  <ref_mols>  (87) 
x0310_0A,x0566_0A

>  <original SMILES>  (87) 
C[C@@H]1C[C@H]1CNC(=O)C1(c2ccc(Cl)cc2Cl)CCOCC1

>  <rationale>  (87) 
-1

>  <IC50 (nM)>  (87) 
2268.140743200974

>  <CNNaffinity>  (87) 
5.64433

$$$$
Z4186314896
     RDKit          3D

 23 25  0  0  0  0  0  0  0  0999 V2000
    8.7421   14.0826   22.2236 O   0  0  0  0  0  0  0  0  0  0  0  0
    9.6896   13.3902   22.5885 C   0  0  0  0  0  0  0  0  0  0  0  0
   10.9375   13.7147   22.0854 N   0  0  0  0  0  0  0  0  0  0  0  0
   11.1646   14.7866   21.1211 C   0  0  0  0  0  0  0  0  0  0  0  0
   10.4137   14.4491   19.8456 C   0  0  2  0  0  0  0  0  0  0  0  0
   11.0720   13.5432   18.8216 C   0  0  0  0  0  0  0  0  0  0  0  0
   10.8487   15.0270   18.5018 C   0  0  1  0  0  0  0  0  0  0  0  0
    9.7936   15.4669   17.5720 N   0  0  0  0  0  4  0  0  0  0  0  0
    9.5706   16.6772   17.5194 O   0  0  0  0  0  0  0  0  0  0  0  0
    9.1991   14.6070   16.9090 O   0  0  0  0  0  1  0  0  0  0  0  0
    9.5199   12.2492   23.6393 C   0  0  0  0  0  0  0  0  0  0  0  0
   10.4447   12.5559   24.8208 C   0  0  0  0  0  0  0  0  0  0  0  0
    9.9569   12.9269   26.0869 C   0  0  0  0  0  0  0  0  0  0  0  0
   10.8345   13.1870   27.1481 C   0  0  0  0  0  0  0  0  0  0  0  0
   12.2151   13.0859   26.9539 C   0  0  0  0  0  0  0  0  0  0  0  0
   12.7223   12.7436   25.6981 C   0  0  0  0  0  0  0  0  0  0  0  0
   14.6118   12.6478   25.4155 Br  0  0  0  0  0  0  0  0  0  0  0  0
   11.8370   12.4831   24.6463 C   0  0  0  0  0  0  0  0  0  0  0  0
    9.8977   10.8441   23.0856 C   0  0  0  0  0  0  0  0  0  0  0  0
    9.6109    9.7435   24.1197 C   0  0  0  0  0  0  0  0  0  0  0  0
    8.2213    9.7503   24.4728 O   0  0  0  0  0  0  0  0  0  0  0  0
    7.7877   10.9898   25.0470 C   0  0  0  0  0  0  0  0  0  0  0  0
    8.0351   12.1507   24.0770 C   0  0  0  0  0  0  0  0  0  0  0  0
  1  2  2  0
  2  3  1  0
  3  4  1  0
  5  4  1  1
  5  6  1  0
  6  7  1  0
  7  8  1  6
  8  9  2  0
  8 10  1  0
  2 11  1  0
 11 12  1  0
 12 13  2  0
 13 14  1  0
 14 15  2  0
 15 16  1  0
 16 17  1  0
 16 18  2  0
 11 19  1  0
 19 20  1  0
 20 21  1  0
 21 22  1  0
 22 23  1  0
  7  5  1  0
 23 11  1  0
 18 12  1  0
M  CHG  2   8   1  10  -1
M  END
>  <ref_pdb>  (88) 
x0554_0A

>  <ref_mols>  (88) 
x0310_0A,x0566_0A

>  <original SMILES>  (88) 
O=C(NC[C@@H]1C[C@H]1[N+](=O)[O-])C1(c2cccc(Br)c2)CCOCC1

>  <rationale>  (88) 
-1

>  <IC50 (nM)>  (88) 
2273.8928705157937

>  <CNNaffinity>  (88) 
5.64323

$$$$
Z1533709780
     RDKit          3D

 23 25  0  0  0  0  0  0  0  0999 V2000
    9.1249   14.5160   23.0196 O   0  0  0  0  0  0  0  0  0  0  0  0
    9.6648   13.4646   22.7659 C   0  0  0  0  0  0  0  0  0  0  0  0
   10.4246   13.2733   21.6203 N   0  0  0  0  0  0  0  0  0  0  0  0
   10.2158   13.9284   20.4238 C   0  0  0  0  0  0  0  0  0  0  0  0
   11.2050   13.8650   19.4165 C   0  0  0  0  0  0  0  0  0  0  0  0
   10.9327   14.4713   18.2034 C   0  0  0  0  0  0  0  0  0  0  0  0
    9.6894   15.1242   18.0744 C   0  0  0  0  0  0  0  0  0  0  0  0
    8.7931   15.1351   19.0565 N   0  0  0  0  0  0  0  0  0  0  0  0
    9.0512   14.5432   20.2264 N   0  0  0  0  0  0  0  0  0  0  0  0
    9.5323   12.2356   23.7675 C   0  0  0  0  0  0  0  0  0  0  0  0
   10.4858   12.5543   24.9432 C   0  0  0  0  0  0  0  0  0  0  0  0
   10.0881   12.8919   26.2478 C   0  0  0  0  0  0  0  0  0  0  0  0
   11.0181   13.0992   27.2716 C   0  0  0  0  0  0  0  0  0  0  0  0
   12.3716   12.9629   26.9865 C   0  0  0  0  0  0  0  0  0  0  0  0
   13.2702   13.1170   27.9669 F   0  0  0  0  0  0  0  0  0  0  0  0
   12.8308   12.6984   25.7033 C   0  0  0  0  0  0  0  0  0  0  0  0
   11.8702   12.5441   24.7171 C   0  0  0  0  0  0  0  0  0  0  0  0
   12.3221   12.4139   23.4446 F   0  0  0  0  0  0  0  0  0  0  0  0
    9.8749   10.8357   23.1458 C   0  0  0  0  0  0  0  0  0  0  0  0
    9.5451    9.7037   24.1241 C   0  0  0  0  0  0  0  0  0  0  0  0
    8.1595    9.6827   24.4116 O   0  0  0  0  0  0  0  0  0  0  0  0
    7.6925   10.8796   25.0080 C   0  0  0  0  0  0  0  0  0  0  0  0
    8.0146   12.1243   24.1654 C   0  0  0  0  0  0  0  0  0  0  0  0
  1  2  2  0
  2  3  1  0
  3  4  1  0
  4  5  2  0
  5  6  1  0
  6  7  2  0
  7  8  1  0
  8  9  2  0
  2 10  1  0
 10 11  1  0
 11 12  2  0
 12 13  1  0
 13 14  2  0
 14 15  1  0
 14 16  1  0
 16 17  2  0
 17 18  1  0
 10 19  1  0
 19 20  1  0
 20 21  1  0
 21 22  1  0
 22 23  1  0
  9  4  1  0
 23 10  1  0
 17 11  1  0
M  END
>  <ref_pdb>  (89) 
x0554_0A

>  <ref_mols>  (89) 
x0310_0A,x0566_0A

>  <original SMILES>  (89) 
O=C(Nc1cccnn1)C1(c2ccc(F)cc2F)CCOCC1

>  <rationale>  (89) 
-1

>  <IC50 (nM)>  (89) 
2286.598951426758

>  <CNNaffinity>  (89) 
5.64081

$$$$
Z4181707018
     RDKit          3D

 23 25  0  0  0  0  0  0  0  0999 V2000
   13.2856   13.1543   28.0703 C   0  0  0  0  0  0  0  0  0  0  0  0
   12.2818   12.8924   26.9814 C   0  0  0  0  0  0  0  0  0  0  0  0
   10.9123   13.0633   27.2193 C   0  0  0  0  0  0  0  0  0  0  0  0
    9.9758   12.8068   26.2097 C   0  0  0  0  0  0  0  0  0  0  0  0
   10.3973   12.3847   24.9400 C   0  0  0  0  0  0  0  0  0  0  0  0
    9.4198   12.0824   23.8128 C   0  0  0  0  0  0  0  0  0  0  0  0
    9.5454   13.2263   22.7601 C   0  0  0  0  0  0  0  0  0  0  0  0
    8.7031   14.1178   22.7215 O   0  0  0  0  0  0  0  0  0  0  0  0
   10.5441   13.2529   21.8090 N   0  0  0  0  0  0  0  0  0  0  0  0
   10.3874   13.9725   20.6436 C   0  0  0  0  0  0  0  0  0  0  0  0
    9.2972   14.6416   20.3849 N   0  0  0  0  0  0  0  0  0  0  0  0
    9.4920   15.1302   19.1010 C   0  0  0  0  0  0  0  0  0  0  0  0
   10.6884   14.7421   18.5877 C   0  0  0  0  0  0  0  0  0  0  0  0
   11.3208   15.1479   16.8330 Br  0  0  0  0  0  0  0  0  0  0  0  0
   11.2932   14.0261   19.5940 N   0  0  0  0  0  0  0  0  0  0  0  0
   12.6761   13.5515   19.5922 C   0  0  0  0  0  0  0  0  0  0  0  0
    9.7611   10.6756   23.2390 C   0  0  0  0  0  0  0  0  0  0  0  0
    9.4827    9.5724   24.2733 C   0  0  0  0  0  0  0  0  0  0  0  0
    8.1026    9.5982   24.6543 O   0  0  0  0  0  0  0  0  0  0  0  0
    7.7171   10.8323   25.2717 C   0  0  0  0  0  0  0  0  0  0  0  0
    7.9498   12.0023   24.3118 C   0  0  0  0  0  0  0  0  0  0  0  0
   11.7704   12.2587   24.6970 C   0  0  0  0  0  0  0  0  0  0  0  0
   12.7051   12.4888   25.7109 C   0  0  0  0  0  0  0  0  0  0  0  0
  1  2  1  0
  2  3  2  0
  3  4  1  0
  4  5  2  0
  5  6  1  0
  6  7  1  0
  7  8  2  0
  7  9  1  0
  9 10  1  0
 10 11  2  0
 11 12  1  0
 12 13  2  0
 13 14  1  0
 13 15  1  0
 15 16  1  0
  6 17  1  0
 17 18  1  0
 18 19  1  0
 19 20  1  0
 20 21  1  0
  5 22  1  0
 22 23  2  0
 23  2  1  0
 21  6  1  0
 15 10  1  0
M  END
>  <ref_pdb>  (90) 
x0554_0A

>  <ref_mols>  (90) 
x0310_0A,x0566_0A

>  <original SMILES>  (90) 
Cc1ccc(C2(C(=O)Nc3ncc(Br)n3C)CCOCC2)cc1

>  <rationale>  (90) 
-1

>  <IC50 (nM)>  (90) 
2289.6547428986883

>  <CNNaffinity>  (90) 
5.64023

$$$$
Z2497744702
     RDKit          3D

 23 25  0  0  0  0  0  0  0  0999 V2000
   13.2908   13.2893   28.2581 C   0  0  0  0  0  0  0  0  0  0  0  0
   12.3101   13.0160   27.1437 C   0  0  0  0  0  0  0  0  0  0  0  0
   10.9335   13.1870   27.3466 C   0  0  0  0  0  0  0  0  0  0  0  0
    9.9940   12.8502   26.3664 C   0  0  0  0  0  0  0  0  0  0  0  0
   10.4108   12.3232   25.1363 C   0  0  0  0  0  0  0  0  0  0  0  0
    9.4599   11.9133   23.9793 C   0  0  0  0  0  0  0  0  0  0  0  0
    9.6466   13.0433   22.8905 C   0  0  0  0  0  0  0  0  0  0  0  0
    8.9425   14.0393   22.8528 O   0  0  0  0  0  0  0  0  0  0  0  0
   10.7071   12.8384   22.0303 N   0  0  0  0  0  0  0  0  0  0  0  0
   11.2949   13.7094   21.1086 N   0  0  0  0  0  0  0  0  0  0  0  0
   10.3870   14.0269   19.9964 C   0  0  0  0  0  0  0  0  0  0  0  0
   11.1170   14.7978   18.9011 C   0  0  0  0  0  0  0  0  0  0  0  0
   11.8164   16.0416   19.4619 C   0  0  0  0  0  0  0  0  0  0  0  0
   12.7128   15.6441   20.6495 C   0  0  0  0  0  0  0  0  0  0  0  0
   11.9054   14.9007   21.7193 C   0  0  0  0  0  0  0  0  0  0  0  0
    9.7957   10.4618   23.4617 C   0  0  0  0  0  0  0  0  0  0  0  0
    9.4255    9.3991   24.4995 C   0  0  0  0  0  0  0  0  0  0  0  0
    8.0489    9.4448   24.8208 O   0  0  0  0  0  0  0  0  0  0  0  0
    7.6195   10.6927   25.3305 C   0  0  0  0  0  0  0  0  0  0  0  0
    7.9525   11.8584   24.3896 C   0  0  0  0  0  0  0  0  0  0  0  0
   11.7955   12.2458   24.9091 C   0  0  0  0  0  0  0  0  0  0  0  0
   12.7504   12.5860   25.8705 C   0  0  0  0  0  0  0  0  0  0  0  0
   14.2135   12.4922   25.4999 C   0  0  0  0  0  0  0  0  0  0  0  0
  1  2  1  0
  2  3  2  0
  3  4  1  0
  4  5  2  0
  5  6  1  0
  6  7  1  0
  7  8  2  0
  7  9  1  0
  9 10  1  0
 10 11  1  0
 11 12  1  0
 12 13  1  0
 13 14  1  0
 14 15  1  0
  6 16  1  0
 16 17  1  0
 17 18  1  0
 18 19  1  0
 19 20  1  0
  5 21  1  0
 21 22  2  0
 22 23  1  0
 22  2  1  0
 20  6  1  0
 15 10  1  0
M  END
>  <ref_pdb>  (91) 
x0554_0A

>  <ref_mols>  (91) 
x0310_0A,x0566_0A

>  <original SMILES>  (91) 
Cc1ccc(C2(C(=O)NN3CCCCC3)CCOCC2)cc1C

>  <rationale>  (91) 
-1

>  <IC50 (nM)>  (91) 
2293.6650657450264

>  <CNNaffinity>  (91) 
5.63947

$$$$
Z2823444625
     RDKit          3D

 23 25  0  0  0  0  0  0  0  0999 V2000
   10.2901   15.6485   16.6359 C   0  0  0  0  0  0  0  0  0  0  0  0
   10.4885   15.0740   18.0118 C   0  0  0  0  0  0  0  0  0  0  0  0
   11.6965   14.4417   18.4247 C   0  0  0  0  0  0  0  0  0  0  0  0
   11.7324   13.8725   19.6760 C   0  0  0  0  0  0  0  0  0  0  0  0
   10.5614   13.9118   20.4687 C   0  0  0  0  0  0  0  0  0  0  0  0
   10.5667   13.1572   21.6454 N   0  0  0  0  0  0  0  0  0  0  0  0
    9.6681   13.2786   22.6858 C   0  0  0  0  0  0  0  0  0  0  0  0
    9.0280   14.2929   22.8316 O   0  0  0  0  0  0  0  0  0  0  0  0
    9.5322   12.0798   23.7183 C   0  0  0  0  0  0  0  0  0  0  0  0
   10.4957   12.4256   24.8814 C   0  0  0  0  0  0  0  0  0  0  0  0
   10.0532   12.9101   26.1221 C   0  0  0  0  0  0  0  0  0  0  0  0
   10.9551   13.1436   27.1650 C   0  0  0  0  0  0  0  0  0  0  0  0
   12.3255   12.9302   26.9851 C   0  0  0  0  0  0  0  0  0  0  0  0
   12.7638   12.5101   25.7332 C   0  0  0  0  0  0  0  0  0  0  0  0
   14.0791   12.3106   25.5365 F   0  0  0  0  0  0  0  0  0  0  0  0
   11.8819   12.2860   24.6790 C   0  0  0  0  0  0  0  0  0  0  0  0
    9.8376   10.6358   23.1802 C   0  0  0  0  0  0  0  0  0  0  0  0
    9.4592    9.5775   24.2321 C   0  0  0  0  0  0  0  0  0  0  0  0
    8.0829    9.6338   24.5619 O   0  0  0  0  0  0  0  0  0  0  0  0
    7.6808   10.8848   25.0861 C   0  0  0  0  0  0  0  0  0  0  0  0
    8.0182   12.0328   24.1327 C   0  0  0  0  0  0  0  0  0  0  0  0
    9.4873   14.5862   20.0745 N   0  0  0  0  0  0  0  0  0  0  0  0
    9.4525   15.1594   18.8548 N   0  0  0  0  0  0  0  0  0  0  0  0
  1  2  1  0
  2  3  2  0
  3  4  1  0
  4  5  2  0
  5  6  1  0
  6  7  1  0
  7  8  2  0
  7  9  1  0
  9 10  1  0
 10 11  2  0
 11 12  1  0
 12 13  2  0
 13 14  1  0
 14 15  1  0
 14 16  2  0
  9 17  1  0
 17 18  1  0
 18 19  1  0
 19 20  1  0
 20 21  1  0
  5 22  1  0
 22 23  2  0
 23  2  1  0
 21  9  1  0
 16 10  1  0
M  END
>  <ref_pdb>  (92) 
x0554_0A

>  <ref_mols>  (92) 
x0310_0A,x0566_0A

>  <original SMILES>  (92) 
Cc1ccc(NC(=O)C2(c3cccc(F)c3)CCOCC2)nn1

>  <rationale>  (92) 
-1

>  <IC50 (nM)>  (92) 
2303.50945924146

>  <CNNaffinity>  (92) 
5.63761

$$$$
Z803678500
     RDKit          3D

 23 25  0  0  0  0  0  0  0  0999 V2000
    8.7593   14.0743   22.3842 O   0  0  0  0  0  0  0  0  0  0  0  0
    9.6383   13.2507   22.6057 C   0  0  0  0  0  0  0  0  0  0  0  0
   10.7806   13.2791   21.8341 N   0  0  0  0  0  0  0  0  0  0  0  0
   10.7914   13.9167   20.6279 C   0  0  0  0  0  0  0  0  0  0  0  0
   11.9424   13.8865   19.8490 C   0  0  0  0  0  0  0  0  0  0  0  0
   11.9340   14.4781   18.5843 C   0  0  0  0  0  0  0  0  0  0  0  0
   10.7471   15.0662   18.1505 C   0  0  0  0  0  0  0  0  0  0  0  0
   10.6160   15.8818   16.4210 Br  0  0  0  0  0  0  0  0  0  0  0  0
    9.6351   15.0206   18.9947 C   0  0  0  0  0  0  0  0  0  0  0  0
    9.6550   14.4609   20.2074 N   0  0  0  0  0  0  0  0  0  0  0  0
    9.4633   12.1586   23.6893 C   0  0  0  0  0  0  0  0  0  0  0  0
   10.4280   12.5083   24.8112 C   0  0  0  0  0  0  0  0  0  0  0  0
    9.9846   13.0348   26.0325 C   0  0  0  0  0  0  0  0  0  0  0  0
   10.8892   13.3302   27.0573 C   0  0  0  0  0  0  0  0  0  0  0  0
   10.3235   14.0070   28.5635 Cl  0  0  0  0  0  0  0  0  0  0  0  0
   12.2543   13.0986   26.8626 C   0  0  0  0  0  0  0  0  0  0  0  0
   12.7196   12.6148   25.6363 C   0  0  0  0  0  0  0  0  0  0  0  0
   11.8065   12.3333   24.6162 C   0  0  0  0  0  0  0  0  0  0  0  0
    9.8113   10.7459   23.1477 C   0  0  0  0  0  0  0  0  0  0  0  0
    9.5468    9.6671   24.2026 C   0  0  0  0  0  0  0  0  0  0  0  0
    8.1644    9.7027   24.5837 O   0  0  0  0  0  0  0  0  0  0  0  0
    7.7739   10.9529   25.1678 C   0  0  0  0  0  0  0  0  0  0  0  0
    7.9885   12.0878   24.1657 C   0  0  0  0  0  0  0  0  0  0  0  0
  1  2  2  0
  2  3  1  0
  3  4  1  0
  4  5  2  0
  5  6  1  0
  6  7  2  0
  7  8  1  0
  7  9  1  0
  9 10  2  0
  2 11  1  0
 11 12  1  0
 12 13  2  0
 13 14  1  0
 14 15  1  0
 14 16  2  0
 16 17  1  0
 17 18  2  0
 11 19  1  0
 19 20  1  0
 20 21  1  0
 21 22  1  0
 22 23  1  0
 10  4  1  0
 23 11  1  0
 18 12  1  0
M  END
>  <ref_pdb>  (93) 
x0554_0A

>  <ref_mols>  (93) 
x0310_0A,x0566_0A

>  <original SMILES>  (93) 
O=C(Nc1ccc(Br)cn1)C1(c2cccc(Cl)c2)CCOCC1

>  <rationale>  (93) 
-1

>  <IC50 (nM)>  (93) 
2304.517444760823

>  <CNNaffinity>  (93) 
5.63742

$$$$
Z803556778
     RDKit          3D

 22 24  0  0  0  0  0  0  0  0999 V2000
   12.8297   13.1467   19.5931 O   0  0  0  0  0  0  0  0  0  0  0  0
   11.9258   13.9627   19.6242 C   0  0  0  0  0  0  0  0  0  0  0  0
   11.0225   14.0956   20.6403 N   0  0  0  0  0  0  0  0  0  0  0  0
   10.8861   13.2385   21.7626 N   0  0  0  0  0  0  0  0  0  0  0  0
    9.7188   13.2384   22.5241 C   0  0  0  0  0  0  0  0  0  0  0  0
    8.8631   14.0850   22.3334 O   0  0  0  0  0  0  0  0  0  0  0  0
    9.5770   12.1326   23.6575 C   0  0  0  0  0  0  0  0  0  0  0  0
   10.5197   12.5172   24.8323 C   0  0  0  0  0  0  0  0  0  0  0  0
   10.0648   13.0700   26.0442 C   0  0  0  0  0  0  0  0  0  0  0  0
   10.9701   13.3320   27.0775 C   0  0  0  0  0  0  0  0  0  0  0  0
   10.3860   14.0144   28.5700 Cl  0  0  0  0  0  0  0  0  0  0  0  0
   12.3332   13.0655   26.9466 C   0  0  0  0  0  0  0  0  0  0  0  0
   12.7983   12.5639   25.7286 C   0  0  0  0  0  0  0  0  0  0  0  0
   11.9063   12.3265   24.6793 C   0  0  0  0  0  0  0  0  0  0  0  0
    9.9016   10.6705   23.1597 C   0  0  0  0  0  0  0  0  0  0  0  0
    9.5123    9.6315   24.2243 C   0  0  0  0  0  0  0  0  0  0  0  0
    8.1292    9.6885   24.5248 O   0  0  0  0  0  0  0  0  0  0  0  0
    7.7162   10.9424   25.0365 C   0  0  0  0  0  0  0  0  0  0  0  0
    8.0637   12.0868   24.0770 C   0  0  0  0  0  0  0  0  0  0  0  0
   11.7254   14.9021   18.4641 C   0  0  0  0  0  0  0  0  0  0  0  0
   11.4051   16.3749   18.5462 C   0  0  0  0  0  0  0  0  0  0  0  0
   10.4008   15.4316   17.9621 C   0  0  0  0  0  0  0  0  0  0  0  0
  1  2  2  0
  2  3  1  0
  3  4  1  0
  4  5  1  0
  5  6  2  0
  5  7  1  0
  7  8  1  0
  8  9  2  0
  9 10  1  0
 10 11  1  0
 10 12  2  0
 12 13  1  0
 13 14  2  0
  7 15  1  0
 15 16  1  0
 16 17  1  0
 17 18  1  0
 18 19  1  0
  2 20  1  0
 20 21  1  0
 21 22  1  0
 19  7  1  0
 22 20  1  0
 14  8  1  0
M  END
>  <ref_pdb>  (94) 
x0554_0A

>  <ref_mols>  (94) 
x0310_0A,x0566_0A

>  <original SMILES>  (94) 
O=C(NNC(=O)C1(c2cccc(Cl)c2)CCOCC1)C1CC1

>  <rationale>  (94) 
-1

>  <IC50 (nM)>  (94) 
2308.8195969597023

>  <CNNaffinity>  (94) 
5.63661

$$$$
Z1401982234
     RDKit          3D

 23 25  0  0  0  0  0  0  0  0999 V2000
   12.6486   13.6997   19.6004 C   0  0  0  0  0  0  0  0  0  0  0  0
   11.2831   14.3075   19.6193 C   0  0  0  0  0  0  0  0  0  0  0  0
   10.2836   14.2323   20.5638 C   0  0  0  0  0  0  0  0  0  0  0  0
   10.3052   13.3276   21.6576 N   0  0  0  0  0  0  0  0  0  0  0  0
    9.4989   13.4050   22.7668 C   0  0  0  0  0  0  0  0  0  0  0  0
    8.8474   14.4104   22.9862 O   0  0  0  0  0  0  0  0  0  0  0  0
    9.4509   12.1806   23.7472 C   0  0  0  0  0  0  0  0  0  0  0  0
   10.4174   12.5500   24.8966 C   0  0  0  0  0  0  0  0  0  0  0  0
    9.9944   13.0027   26.1569 C   0  0  0  0  0  0  0  0  0  0  0  0
   10.9206   13.2230   27.1829 C   0  0  0  0  0  0  0  0  0  0  0  0
   12.2881   13.0367   26.9616 C   0  0  0  0  0  0  0  0  0  0  0  0
   12.7130   12.6704   25.6843 C   0  0  0  0  0  0  0  0  0  0  0  0
   14.4124   12.4768   25.3634 Cl  0  0  0  0  0  0  0  0  0  0  0  0
   11.8001   12.4590   24.6532 C   0  0  0  0  0  0  0  0  0  0  0  0
    9.8468   10.7832   23.1450 C   0  0  0  0  0  0  0  0  0  0  0  0
    9.5812    9.6708   24.1675 C   0  0  0  0  0  0  0  0  0  0  0  0
    8.2071    9.6054   24.5043 O   0  0  0  0  0  0  0  0  0  0  0  0
    7.7147   10.7997   25.0831 C   0  0  0  0  0  0  0  0  0  0  0  0
    7.9563   12.0195   24.1900 C   0  0  0  0  0  0  0  0  0  0  0  0
    9.2797   15.1287   20.1148 C   0  0  0  0  0  0  0  0  0  0  0  0
    9.6060   15.6544   18.9432 N   0  0  0  0  0  0  0  0  0  0  0  0
   10.8157   15.1425   18.6499 N   0  0  0  0  0  0  0  0  0  0  0  0
   11.3721   15.3352   17.3271 C   0  0  0  0  0  0  0  0  0  0  0  0
  1  2  1  0
  2  3  2  0
  3  4  1  0
  4  5  1  0
  5  6  2  0
  5  7  1  0
  7  8  1  0
  8  9  2  0
  9 10  1  0
 10 11  2  0
 11 12  1  0
 12 13  1  0
 12 14  2  0
  7 15  1  0
 15 16  1  0
 16 17  1  0
 17 18  1  0
 18 19  1  0
  3 20  1  0
 20 21  2  0
 21 22  1  0
 22 23  1  0
 22  2  1  0
 19  7  1  0
 14  8  1  0
M  END
>  <ref_pdb>  (95) 
x0554_0A

>  <ref_mols>  (95) 
x0310_0A,x0566_0A

>  <original SMILES>  (95) 
Cc1c(NC(=O)C2(c3cccc(Cl)c3)CCOCC2)cnn1C

>  <rationale>  (95) 
-1

>  <IC50 (nM)>  (95) 
2317.074512180786

>  <CNNaffinity>  (95) 
5.63506

$$$$
Z4330576760
     RDKit          3D

 22 24  0  0  0  0  0  0  0  0999 V2000
   12.0041   15.0812   17.5808 C   0  0  0  0  0  0  0  0  0  0  0  0
   11.2173   14.6930   18.7772 C   0  0  0  0  0  0  0  0  0  0  0  0
   11.5500   13.8700   19.7227 N   0  0  0  0  0  0  0  0  0  0  0  0
   10.4738   13.9723   20.5505 C   0  0  0  0  0  0  0  0  0  0  0  0
   10.4993   13.1692   21.6503 N   0  0  0  0  0  0  0  0  0  0  0  0
    9.6189   13.2858   22.7018 C   0  0  0  0  0  0  0  0  0  0  0  0
    8.9322   14.2787   22.8043 O   0  0  0  0  0  0  0  0  0  0  0  0
    9.5179   12.1087   23.7422 C   0  0  0  0  0  0  0  0  0  0  0  0
   10.4824   12.4678   24.8990 C   0  0  0  0  0  0  0  0  0  0  0  0
   10.0554   12.9529   26.1462 C   0  0  0  0  0  0  0  0  0  0  0  0
   10.9628   13.1805   27.1876 C   0  0  0  0  0  0  0  0  0  0  0  0
   12.3226   12.9453   26.9768 C   0  0  0  0  0  0  0  0  0  0  0  0
   13.4560   13.1876   28.2715 Cl  0  0  0  0  0  0  0  0  0  0  0  0
   12.7881   12.5370   25.7271 C   0  0  0  0  0  0  0  0  0  0  0  0
   11.8687   12.3277   24.6985 C   0  0  0  0  0  0  0  0  0  0  0  0
    9.8574   10.6862   23.1693 C   0  0  0  0  0  0  0  0  0  0  0  0
    9.5091    9.5928   24.1913 C   0  0  0  0  0  0  0  0  0  0  0  0
    8.1316    9.6003   24.5201 O   0  0  0  0  0  0  0  0  0  0  0  0
    7.6925   10.8231   25.0833 C   0  0  0  0  0  0  0  0  0  0  0  0
    8.0056   12.0149   24.1706 C   0  0  0  0  0  0  0  0  0  0  0  0
    9.5199   14.7740   20.1736 N   0  0  0  0  0  0  0  0  0  0  0  0
   10.0287   15.2667   18.9689 O   0  0  0  0  0  0  0  0  0  0  0  0
  1  2  1  0
  2  3  2  0
  3  4  1  0
  4  5  1  0
  5  6  1  0
  6  7  2  0
  6  8  1  0
  8  9  1  0
  9 10  2  0
 10 11  1  0
 11 12  2  0
 12 13  1  0
 12 14  1  0
 14 15  2  0
  8 16  1  0
 16 17  1  0
 17 18  1  0
 18 19  1  0
 19 20  1  0
  4 21  2  0
 21 22  1  0
 22  2  1  0
 20  8  1  0
 15  9  1  0
M  END
>  <ref_pdb>  (96) 
x0554_0A

>  <ref_mols>  (96) 
x0310_0A,x0566_0A

>  <original SMILES>  (96) 
Cc1nc(NC(=O)C2(c3ccc(Cl)cc3)CCOCC2)no1

>  <rationale>  (96) 
-1

>  <IC50 (nM)>  (96) 
2318.9960025050564

>  <CNNaffinity>  (96) 
5.6347

$$$$
Z5539504023
     RDKit          3D

 23 24  0  0  0  0  0  0  0  0999 V2000
   12.0347   14.3905   18.2603 C   0  0  0  0  0  0  0  0  0  0  0  0
   11.9659   15.3969   19.4124 C   0  0  0  0  0  0  0  0  0  0  0  0
   10.9599   16.4950   19.0587 C   0  0  0  0  0  0  0  0  0  0  0  0
   11.6905   14.6957   20.7593 C   0  0  1  0  0  0  0  0  0  0  0  0
   12.1855   15.7706   22.1786 S   0  0  0  0  0  0  0  0  0  0  0  0
   10.2527   14.1687   20.9020 C   0  0  0  0  0  0  0  0  0  0  0  0
   10.1342   13.1644   21.9429 N   0  0  0  0  0  0  0  0  0  0  0  0
    9.3606   13.2952   23.0584 C   0  0  0  0  0  0  0  0  0  0  0  0
    8.6958   14.2999   23.2596 O   0  0  0  0  0  0  0  0  0  0  0  0
    9.3464   12.1014   24.1042 C   0  0  0  0  0  0  0  0  0  0  0  0
   10.3562   12.4693   25.2184 C   0  0  0  0  0  0  0  0  0  0  0  0
    9.9903   12.8175   26.5299 C   0  0  0  0  0  0  0  0  0  0  0  0
   10.9407   13.1470   27.5003 C   0  0  0  0  0  0  0  0  0  0  0  0
   12.2896   13.0993   27.1683 C   0  0  0  0  0  0  0  0  0  0  0  0
   13.2083   13.3620   28.1091 F   0  0  0  0  0  0  0  0  0  0  0  0
   12.7172   12.7861   25.8828 C   0  0  0  0  0  0  0  0  0  0  0  0
   11.7318   12.5191   24.9396 C   0  0  0  0  0  0  0  0  0  0  0  0
   12.1512   12.3299   23.6618 F   0  0  0  0  0  0  0  0  0  0  0  0
    9.7087   10.6970   23.5014 C   0  0  0  0  0  0  0  0  0  0  0  0
    9.4188    9.5747   24.5050 C   0  0  0  0  0  0  0  0  0  0  0  0
    8.0515    9.5428   24.8641 O   0  0  0  0  0  0  0  0  0  0  0  0
    7.6084   10.7339   25.4846 C   0  0  0  0  0  0  0  0  0  0  0  0
    7.8662   11.9729   24.6177 C   0  0  0  0  0  0  0  0  0  0  0  0
  1  2  1  0
  2  3  1  0
  2  4  1  0
  4  5  1  1
  4  6  1  0
  6  7  1  0
  7  8  1  0
  8  9  2  0
  8 10  1  0
 10 11  1  0
 11 12  2  0
 12 13  1  0
 13 14  2  0
 14 15  1  0
 14 16  1  0
 16 17  2  0
 17 18  1  0
 10 19  1  0
 19 20  1  0
 20 21  1  0
 21 22  1  0
 22 23  1  0
 23 10  1  0
 17 11  1  0
M  END
>  <ref_pdb>  (97) 
x0554_0A

>  <ref_mols>  (97) 
x0310_0A,x0566_0A

>  <original SMILES>  (97) 
CC(C)[C@@H](S)CNC(=O)C1(c2ccc(F)cc2F)CCOCC1

>  <rationale>  (97) 
-1

>  <IC50 (nM)>  (97) 
2331.73934011962

>  <CNNaffinity>  (97) 
5.63232

$$$$
Z1247138156
     RDKit          3D

 23 25  0  0  0  0  0  0  0  0999 V2000
    8.6386   14.3681   16.7491 C   0  0  0  0  0  0  0  0  0  0  0  0
    9.5639   15.4406   17.3629 C   0  0  0  0  0  0  0  0  0  0  0  0
   10.1760   14.9570   18.6368 C   0  0  0  0  0  0  0  0  0  0  0  0
    9.6347   14.7881   19.8722 C   0  0  0  0  0  0  0  0  0  0  0  0
   10.6124   14.0134   20.5372 C   0  0  0  0  0  0  0  0  0  0  0  0
   10.5922   13.3979   21.7740 N   0  0  0  0  0  0  0  0  0  0  0  0
    9.4981   13.3469   22.6011 C   0  0  0  0  0  0  0  0  0  0  0  0
    8.5944   14.1486   22.4597 O   0  0  0  0  0  0  0  0  0  0  0  0
    9.4697   12.2183   23.7070 C   0  0  0  0  0  0  0  0  0  0  0  0
   10.4550   12.5928   24.8453 C   0  0  0  0  0  0  0  0  0  0  0  0
   10.0506   13.0336   26.1185 C   0  0  0  0  0  0  0  0  0  0  0  0
   10.9842   13.2611   27.1382 C   0  0  0  0  0  0  0  0  0  0  0  0
   12.3577   13.0754   26.9286 C   0  0  0  0  0  0  0  0  0  0  0  0
   13.3681   13.3205   28.0236 C   0  0  0  0  0  0  0  0  0  0  0  0
   12.7685   12.6833   25.6451 C   0  0  0  0  0  0  0  0  0  0  0  0
   11.8399   12.4681   24.6244 C   0  0  0  0  0  0  0  0  0  0  0  0
    9.8490   10.8068   23.1173 C   0  0  0  0  0  0  0  0  0  0  0  0
    9.5863    9.6981   24.1402 C   0  0  0  0  0  0  0  0  0  0  0  0
    8.2147    9.6427   24.4850 O   0  0  0  0  0  0  0  0  0  0  0  0
    7.7375   10.8391   25.0713 C   0  0  0  0  0  0  0  0  0  0  0  0
    7.9845   12.0666   24.1883 C   0  0  0  0  0  0  0  0  0  0  0  0
   11.6768   13.8119   19.8076 N   0  0  0  0  0  0  0  0  0  0  0  0
   11.3976   14.4079   18.5874 O   0  0  0  0  0  0  0  0  0  0  0  0
  1  2  1  0
  2  3  1  0
  3  4  2  0
  4  5  1  0
  5  6  1  0
  6  7  1  0
  7  8  2  0
  7  9  1  0
  9 10  1  0
 10 11  2  0
 11 12  1  0
 12 13  2  0
 13 14  1  0
 13 15  1  0
 15 16  2  0
  9 17  1  0
 17 18  1  0
 18 19  1  0
 19 20  1  0
 20 21  1  0
  5 22  2  0
 22 23  1  0
 23  3  1  0
 21  9  1  0
 16 10  1  0
M  END
>  <ref_pdb>  (98) 
x0554_0A

>  <ref_mols>  (98) 
x0310_0A,x0566_0A

>  <original SMILES>  (98) 
CCc1cc(NC(=O)C2(c3ccc(C)cc3)CCOCC2)no1

>  <rationale>  (98) 
-1

>  <IC50 (nM)>  (98) 
2341.9089158694806

>  <CNNaffinity>  (98) 
5.63043

$$$$
Z4040272484
     RDKit          3D

 23 24  0  0  0  0  0  0  0  0999 V2000
    8.1175   15.6049   20.4498 C   0  0  0  0  0  0  0  0  0  0  0  0
    9.1881   15.0615   20.3806 C   0  0  0  0  0  0  0  0  0  0  0  0
   10.5005   14.3940   20.5180 C   0  0  2  0  0  0  0  0  0  0  0  0
   11.0752   13.7713   19.2308 C   0  0  0  0  0  0  0  0  0  0  0  0
   11.5050   14.7117   18.0929 C   0  0  0  0  0  0  0  0  0  0  0  0
   10.3433   15.4980   17.4867 C   0  0  0  0  0  0  0  0  0  0  0  0
   12.6734   15.6014   18.5099 C   0  0  0  0  0  0  0  0  0  0  0  0
   10.3675   13.3272   21.4979 N   0  0  0  0  0  0  0  0  0  0  0  0
    9.9534   13.5420   22.7702 C   0  0  0  0  0  0  0  0  0  0  0  0
    9.6389   14.6555   23.1605 O   0  0  0  0  0  0  0  0  0  0  0  0
    9.8162   12.3028   23.7275 C   0  0  0  0  0  0  0  0  0  0  0  0
   10.7038   12.6357   24.9519 C   0  0  0  0  0  0  0  0  0  0  0  0
   10.1704   12.9123   26.2252 C   0  0  0  0  0  0  0  0  0  0  0  0
   10.9825   13.1280   27.3400 C   0  0  0  0  0  0  0  0  0  0  0  0
   12.3722   13.0768   27.2135 C   0  0  0  0  0  0  0  0  0  0  0  0
   12.9394   12.8955   25.9524 C   0  0  0  0  0  0  0  0  0  0  0  0
   12.1094   12.7407   24.8358 C   0  0  0  0  0  0  0  0  0  0  0  0
   12.9154   12.8393   23.2856 Cl  0  0  0  0  0  0  0  0  0  0  0  0
   10.2040   10.8957   23.1503 C   0  0  0  0  0  0  0  0  0  0  0  0
    9.7765    9.7760   24.1042 C   0  0  0  0  0  0  0  0  0  0  0  0
    8.3716    9.7720   24.2859 O   0  0  0  0  0  0  0  0  0  0  0  0
    7.8777   10.9737   24.8476 C   0  0  0  0  0  0  0  0  0  0  0  0
    8.2768   12.2089   24.0310 C   0  0  0  0  0  0  0  0  0  0  0  0
  1  2  3  0
  3  2  1  6
  3  4  1  0
  4  5  1  0
  5  6  1  0
  5  7  1  0
  3  8  1  0
  8  9  1  0
  9 10  2  0
  9 11  1  0
 11 12  1  0
 12 13  2  0
 13 14  1  0
 14 15  2  0
 15 16  1  0
 16 17  2  0
 17 18  1  0
 11 19  1  0
 19 20  1  0
 20 21  1  0
 21 22  1  0
 22 23  1  0
 23 11  1  0
 17 12  1  0
M  END
>  <ref_pdb>  (99) 
x0554_0A

>  <ref_mols>  (99) 
x0310_0A,x0566_0A

>  <original SMILES>  (99) 
C#C[C@H](CC(C)C)NC(=O)C1(c2ccccc2Cl)CCOCC1

>  <rationale>  (99) 
-1

>  <IC50 (nM)>  (99) 
2342.5560986240243

>  <CNNaffinity>  (99) 
5.63031

$$$$
Z4466532744
     RDKit          3D

 23 26  0  0  0  0  0  0  0  0999 V2000
    8.8414   14.4273   22.9154 O   0  0  0  0  0  0  0  0  0  0  0  0
    9.5113   13.4219   22.7310 C   0  0  0  0  0  0  0  0  0  0  0  0
   10.3263   13.2955   21.6517 N   0  0  0  0  0  0  0  0  0  0  0  0
   10.6307   14.3691   20.7382 C   0  0  1  0  0  0  0  0  0  0  0  0
   11.8999   15.2330   21.0735 C   0  0  0  0  0  0  0  0  0  0  0  0
   12.7205   14.9648   19.7972 C   0  0  2  0  0  0  0  0  0  0  0  0
   11.6476   15.0608   18.6878 C   0  0  0  0  0  0  0  0  0  0  0  0
   11.0985   13.7999   19.3940 C   0  0  1  0  0  0  0  0  0  0  0  0
   12.5763   13.4334   19.6980 C   0  0  0  0  0  0  0  0  0  0  0  0
    9.4517   12.2137   23.7550 C   0  0  0  0  0  0  0  0  0  0  0  0
   10.4341   12.5633   24.8977 C   0  0  0  0  0  0  0  0  0  0  0  0
   10.0476   12.9090   26.2010 C   0  0  0  0  0  0  0  0  0  0  0  0
   10.9786   13.0797   27.2297 C   0  0  0  0  0  0  0  0  0  0  0  0
   12.3318   12.9311   26.9402 C   0  0  0  0  0  0  0  0  0  0  0  0
   13.2305   13.0505   27.9270 F   0  0  0  0  0  0  0  0  0  0  0  0
   12.7841   12.6841   25.6517 C   0  0  0  0  0  0  0  0  0  0  0  0
   11.8210   12.5373   24.6647 C   0  0  0  0  0  0  0  0  0  0  0  0
   12.2729   12.3985   23.3946 F   0  0  0  0  0  0  0  0  0  0  0  0
    9.8232   10.7904   23.1885 C   0  0  0  0  0  0  0  0  0  0  0  0
    9.4884    9.6930   24.2125 C   0  0  0  0  0  0  0  0  0  0  0  0
    8.1098    9.6820   24.5349 O   0  0  0  0  0  0  0  0  0  0  0  0
    7.6621   10.8956   25.1097 C   0  0  0  0  0  0  0  0  0  0  0  0
    7.9515   12.0945   24.2010 C   0  0  0  0  0  0  0  0  0  0  0  0
  1  2  2  0
  2  3  1  0
  4  3  1  1
  4  5  1  0
  6  5  1  1
  6  7  1  0
  8  7  1  6
  8  9  1  0
  2 10  1  0
 10 11  1  0
 11 12  2  0
 12 13  1  0
 13 14  2  0
 14 15  1  0
 14 16  1  0
 16 17  2  0
 17 18  1  0
 10 19  1  0
 19 20  1  0
 20 21  1  0
 21 22  1  0
 22 23  1  0
  8  4  1  0
 23 10  1  0
  9  6  1  0
 17 11  1  0
M  END
>  <ref_pdb>  (100) 
x0554_0A

>  <ref_mols>  (100) 
x0310_0A,x0566_0A

>  <original SMILES>  (100) 
O=C(N[C@H]1C[C@H]2C[C@@H]1C2)C1(c2ccc(F)cc2F)CCOCC1

>  <rationale>  (100) 
-1

>  <IC50 (nM)>  (100) 
2350.769243777296

>  <CNNaffinity>  (100) 
5.62879

$$$$
