ver_1.2
     RDKit          3D

 14 15  0  0  0  0  0  0  0  0999 V2000
    3.0286    1.5015   -0.1127 C   0  0  0  0  0  0  0  0  0  0  0  0
    2.2018    0.3256   -0.0699 N   0  0  0  0  0  0  0  0  0  0  0  0
    2.6332   -0.9379   -0.0628 C   0  0  0  0  0  0  0  0  0  0  0  0
    1.5895   -1.7853   -0.0188 N   0  0  0  0  0  0  0  0  0  0  0  0
    0.4586   -1.0283    0.0026 C   0  0  0  0  0  0  0  0  0  0  0  0
    0.8619    0.3129   -0.0303 C   0  0  0  0  0  0  0  0  0  0  0  0
   -0.1366    1.2477   -0.0155 C   0  0  0  0  0  0  0  0  0  0  0  0
    0.2041    2.4631   -0.0446 O   0  0  0  0  0  0  0  0  0  0  0  0
   -1.4590    0.9489    0.0281 N   0  0  0  0  0  0  0  0  0  0  0  0
   -1.8029   -0.3496    0.0585 C   0  0  0  0  0  0  0  0  0  0  0  0
   -3.0094   -0.6985    0.0995 O   0  0  0  0  0  0  0  0  0  0  0  0
   -0.8645   -1.3053    0.0459 N   0  0  0  0  0  0  0  0  0  0  0  0
   -1.2562   -2.7029    0.0793 C   0  0  0  0  0  0  0  0  0  0  0  0
   -2.4490    2.0080    0.0406 C   0  0  0  0  0  0  0  0  0  0  0  0
  1  2  1  0
  2  3  1  0
  3  4  2  0
  4  5  1  0
  5  6  2  0
  6  7  1  0
  7  8  2  0
  7  9  1  0
  9 10  1  0
 10 11  2  0
 10 12  1  0
 12 13  1  0
  9 14  1  0
  6  2  1  0
 12  5  1  0
M  END
>  <ref_url>  (1) 
https://github.com/matteoferla/EV-A71-2A-elaborations

>  <submitter_name>  (1) 
Janke Scheen

>  <submitter_email>  (1) 
jenke.scheen@choderalab.org

>  <submitter_institution>  (1) 
MSKCC

>  <generation_date>  (1) 
2023-11-24

>  <method>  (1) 
A71-SILVR

>  <rationale>  (1) 
rationale

>  <cluster_rank>  (1) 
cluster_rank

>  <N_interactions>  (1) 
N_interactions

>  <N_interactions_lost>  (1) 
N_interactions_lost

>  <∆∆G>  (1) 
∆∆G

>  <comRMSD>  (1) 
comRMSD

>  <N_rotatable_bonds>  (1) 
N_rotatable_bonds

>  <N_unconstrained_atoms>  (1) 
N_unconstrained_atoms

>  <N_constrained_atoms>  (1) 
N_constrained_atoms

$$$$
Z46049229
     RDKit          3D

 32 34  0  0  0  0  0  0  0  0999 V2000
    8.8830   13.7200   22.7810 O   0  0  0  0  0  0  0  0  0  0  0  0
    9.4960   12.7690   23.2670 C   0  0  0  0  0  0  0  0  0  0  0  0
   10.9350   12.5960   23.1820 C   0  0  0  0  0  0  0  0  0  0  0  0
   11.5710   13.6140   22.6740 C   0  0  0  0  0  0  0  0  0  0  0  0
   12.9790   13.6360   22.5180 C   0  0  0  0  0  0  0  0  0  0  0  0
   13.5210   13.6660   21.2470 C   0  0  0  0  0  0  0  0  0  0  0  0
   14.8800   13.6980   21.1180 C   0  0  0  0  0  0  0  0  0  0  0  0
   15.6700   13.7070   22.2630 C   0  0  0  0  0  0  0  0  0  0  0  0
   15.1280   13.6630   23.5200 C   0  0  0  0  0  0  0  0  0  0  0  0
   13.7690   13.6260   23.6510 C   0  0  0  0  0  0  0  0  0  0  0  0
   11.4850   11.2990   23.6840 C   0  0  0  0  0  0  0  0  0  0  0  0
   10.6120   10.1290   23.2280 C   0  0  0  0  0  0  0  0  0  0  0  0
    9.3280   10.3890   23.9340 C   0  0  0  0  0  0  0  0  0  0  0  0
    8.6300    9.3920   24.5870 C   0  0  0  0  0  0  0  0  0  0  0  0
    7.4580    9.7240   25.2560 C   0  0  0  0  0  0  0  0  0  0  0  0
    6.9800   11.0120   25.2780 C   0  0  0  0  0  0  0  0  0  0  0  0
    7.6590   12.0050   24.6190 C   0  0  0  0  0  0  0  0  0  0  0  0
    8.8160   11.6900   23.9540 C   0  0  0  0  0  0  0  0  0  0  0  0
   11.0490   14.5050   22.3470 H   0  0  0  0  0  0  0  0  0  0  0  0
   12.8900   13.6660   20.3580 H   0  0  0  0  0  0  0  0  0  0  0  0
   15.3290   13.7220   20.1280 H   0  0  0  0  0  0  0  0  0  0  0  0
   16.7310   13.7560   22.1680 H   0  0  0  0  0  0  0  0  0  0  0  0
   15.7620   13.6620   24.3990 H   0  0  0  0  0  0  0  0  0  0  0  0
   13.3200   13.5940   24.6400 H   0  0  0  0  0  0  0  0  0  0  0  0
   11.5090   11.2700   24.7810 H   0  0  0  0  0  0  0  0  0  0  0  0
   12.5170   11.2340   23.3720 H   0  0  0  0  0  0  0  0  0  0  0  0
   11.0530    9.1770   23.5470 H   0  0  0  0  0  0  0  0  0  0  0  0
   10.4600   10.1020   22.1470 H   0  0  0  0  0  0  0  0  0  0  0  0
    8.9830    8.3630   24.5940 H   0  0  0  0  0  0  0  0  0  0  0  0
    6.9030    8.9670   25.7760 H   0  0  0  0  0  0  0  0  0  0  0  0
    6.0630   11.2440   25.8130 H   0  0  0  0  0  0  0  0  0  0  0  0
    7.2760   13.0260   24.6280 H   0  0  0  0  0  0  0  0  0  0  0  0
  1  2  2  0
  2  3  1  0
  3  4  2  3
  4  5  1  0
  5  6  2  0
  6  7  1  0
  7  8  2  0
  8  9  1  0
  9 10  2  0
  3 11  1  0
 11 12  1  0
 12 13  1  0
 13 14  2  0
 14 15  1  0
 15 16  2  0
 16 17  1  0
 17 18  2  0
 18  2  1  0
 10  5  1  0
 18 13  1  0
  4 19  1  0
  6 20  1  0
  7 21  1  0
  8 22  1  0
  9 23  1  0
 10 24  1  0
 11 25  1  0
 11 26  1  0
 12 27  1  0
 12 28  1  0
 14 29  1  0
 15 30  1  0
 16 31  1  0
 17 32  1  0
A    1
 O1 
A    2
 C1 
A    3
 C2 
A    4
 C3 
A    5
 C4 
A    6
 C5 
A    7
 C6 
A    8
 C7 
A    9
 C8 
A   10
 C9 
A   11
 C10
A   12
 C11
A   13
 C12
A   14
 C13
A   15
 C14
A   16
 C15
A   17
 C16
A   18
 C17
A   19
 H1 
A   20
 H2 
A   21
 H3 
A   22
 H4 
A   23
 H5 
A   24
 H6 
A   25
 H7 
A   26
 H8 
A   27
 H9 
A   28
 H10
A   29
 H11
A   30
 H12
A   31
 H13
A   32
 H14
M  END
>  <ref_pdb>  (1) 
x0554_0A

>  <ref_mols>  (1) 
x0451_0A,x0554_0A,x0556_0A,x0566_0A,x0310_0A,x0416_0A

>  <original SMILES>  (1) 
O=C1C(=Cc2ccccc2)CCc2ccccc21

>  <rationale>  (1) 
info cluster #11 (rank 1); hydroph_interaction:Y89+L22+H21; 

>  <cluster_rank>  (1) 
1

>  <N_interactions>  (1) 
3

>  <N_interactions_lost>  (1) 
0

>  <∆∆G>  (1) 
-8.323774

>  <comRMSD>  (1) 
0.993659

>  <N_rotatable_bonds>  (1) 
1

>  <N_unconstrained_atoms>  (1) 
8

>  <N_constrained_atoms>  (1) 
12

$$$$
PV_002783756993
     RDKit          3D

 26 28  0  0  0  0  0  0  0  0999 V2000
   12.5390   15.4670   22.0510 C   0  0  0  0  0  0  0  0  0  0  0  0
   11.5500   14.4560   22.4210 C   0  0  0  0  0  0  0  0  0  0  0  0
   10.2980   14.6330   22.1820 N   0  0  0  0  0  0  0  0  0  0  0  0
    9.5740   13.5590   22.5770 N   0  0  0  0  0  0  0  0  0  0  0  0
   10.3050   12.6000   23.0950 C   0  0  0  0  0  0  0  0  0  0  0  0
    9.7790   11.3820   23.5080 C   0  0  0  0  0  0  0  0  0  0  0  0
   10.3420   10.1990   23.0080 C   0  0  0  0  0  0  0  0  0  0  0  0
    9.7960    8.9140   23.4020 C   0  0  0  0  0  0  0  0  0  0  0  0
    8.7290    8.8890   24.2690 C   0  0  0  0  0  0  0  0  0  0  0  0
    8.1690   10.0700   24.7660 C   0  0  0  0  0  0  0  0  0  0  0  0
    7.0910    9.9700   25.6350 C   0  0  0  0  0  0  0  0  0  0  0  0
    6.5040   11.1080   26.1510 C   0  0  0  0  0  0  0  0  0  0  0  0
    6.9920   12.3520   25.8000 C   0  0  0  0  0  0  0  0  0  0  0  0
    8.0700   12.4560   24.9300 C   0  0  0  0  0  0  0  0  0  0  0  0
    8.6830   11.3240   24.3950 C   0  0  0  0  0  0  0  0  0  0  0  0
   11.9690   12.9740   23.1760 S   0  0  0  0  0  0  0  0  0  0  0  0
   12.7140   15.4440   20.9690 H   0  0  0  0  0  0  0  0  0  0  0  0
   12.1580   16.4470   22.3200 H   0  0  0  0  0  0  0  0  0  0  0  0
   13.4830   15.2920   22.5470 H   0  0  0  0  0  0  0  0  0  0  0  0
   11.1750   10.2260   22.3270 H   0  0  0  0  0  0  0  0  0  0  0  0
   10.2150    7.9850   23.0270 H   0  0  0  0  0  0  0  0  0  0  0  0
    8.3370    7.9190   24.5580 H   0  0  0  0  0  0  0  0  0  0  0  0
    6.7080    9.0080   25.9110 H   0  0  0  0  0  0  0  0  0  0  0  0
    5.6610   11.0240   26.8320 H   0  0  0  0  0  0  0  0  0  0  0  0
    6.5310   13.2490   26.2070 H   0  0  0  0  0  0  0  0  0  0  0  0
    8.4220   13.4540   24.6800 H   0  0  0  0  0  0  0  0  0  0  0  0
  1  2  1  0
  2  3  2  0
  3  4  1  0
  4  5  2  0
  5  6  1  0
  6  7  2  0
  7  8  1  0
  8  9  2  0
  9 10  1  0
 10 11  2  0
 11 12  1  0
 12 13  2  0
 13 14  1  0
 14 15  2  0
  5 16  1  0
 16  2  1  0
 15  6  1  0
 15 10  1  0
  1 17  1  0
  1 18  1  0
  1 19  1  0
  7 20  1  0
  8 21  1  0
  9 22  1  0
 11 23  1  0
 12 24  1  0
 13 25  1  0
 14 26  1  0
A    1
 C1 
A    2
 C2 
A    3
 N1 
A    4
 N2 
A    5
 C3 
A    6
 C4 
A    7
 C5 
A    8
 C6 
A    9
 C7 
A   10
 C8 
A   11
 C9 
A   12
 C10
A   13
 C11
A   14
 C12
A   15
 C13
A   16
 S1 
A   17
 H1 
A   18
 H2 
A   19
 H3 
A   20
 H4 
A   21
 H5 
A   22
 H6 
A   23
 H7 
A   24
 H8 
A   25
 H9 
A   26
 H10
M  END
>  <ref_pdb>  (2) 
x0554_0A

>  <ref_mols>  (2) 
x0451_0A,x0554_0A,x0556_0A,x0566_0A,x0310_0A,x0416_0A

>  <original SMILES>  (2) 
Cc1nnc(-c2cccc3ccccc23)s1

>  <rationale>  (2) 
info cluster #14 (rank 1); hydroph_interaction:Y89+D109+V124; 

>  <cluster_rank>  (2) 
1

>  <N_interactions>  (2) 
3

>  <N_interactions_lost>  (2) 
0

>  <∆∆G>  (2) 
-8.12789

>  <comRMSD>  (2) 
0.806501

>  <N_rotatable_bonds>  (2) 
2

>  <N_unconstrained_atoms>  (2) 
0

>  <N_constrained_atoms>  (2) 
16

$$$$
PV_002968267850
     RDKit          3D

 29 31  0  0  0  0  0  0  0  0999 V2000
    9.0690    8.9710   23.9180 C   0  0  0  0  0  0  0  0  0  0  0  0
    8.7970   10.4290   24.1890 C   0  0  0  0  0  0  0  0  0  0  0  0
    7.8360   10.8130   25.1060 C   0  0  0  0  0  0  0  0  0  0  0  0
    7.0980    9.8850   25.7940 C   0  0  0  0  0  0  0  0  0  0  0  0
    6.1350   10.2960   26.7080 C   0  0  0  0  0  0  0  0  0  0  0  0
    5.8850   11.6270   26.9640 C   0  0  0  0  0  0  0  0  0  0  0  0
    6.6300   12.5650   26.2730 C   0  0  0  0  0  0  0  0  0  0  0  0
    7.5880   12.1510   25.3550 C   0  0  0  0  0  0  0  0  0  0  0  0
    8.3110   13.2150   24.6750 N   0  0  0  0  0  0  0  0  0  0  0  0
    9.2440   12.8130   23.7730 C   0  0  0  0  0  0  0  0  0  0  0  0
    9.9560   13.8080   23.0750 C   0  0  0  0  0  0  0  0  0  0  0  0
   10.9080   13.2830   22.3440 C   0  0  0  0  0  0  0  0  0  0  0  0
   11.7410   14.0630   21.5600 C   0  0  0  0  0  0  0  0  0  0  0  0
   11.5980   15.4420   21.5210 C   0  0  0  0  0  0  0  0  0  0  0  0
   10.6100   15.9870   22.2820 N   0  0  0  0  0  0  0  0  0  0  0  0
    9.8150   15.1700   23.0380 C   0  0  0  0  0  0  0  0  0  0  0  0
    9.4830   11.4410   23.5380 C   0  0  0  0  0  0  0  0  0  0  0  0
   10.1470    8.7810   23.8920 H   0  0  0  0  0  0  0  0  0  0  0  0
    8.6300    8.6710   22.9620 H   0  0  0  0  0  0  0  0  0  0  0  0
    8.6340    8.3400   24.6990 H   0  0  0  0  0  0  0  0  0  0  0  0
    7.1790    8.8130   25.7070 H   0  0  0  0  0  0  0  0  0  0  0  0
    5.5560    9.5330   27.2430 H   0  0  0  0  0  0  0  0  0  0  0  0
    5.1400   11.9930   27.6750 H   0  0  0  0  0  0  0  0  0  0  0  0
    6.5350   13.6510   26.3780 H   0  0  0  0  0  0  0  0  0  0  0  0
   11.0180   12.2350   22.3680 H   0  0  0  0  0  0  0  0  0  0  0  0
   12.5130   13.5980   20.9670 H   0  0  0  0  0  0  0  0  0  0  0  0
   12.2630   16.0450   20.9000 H   0  0  0  0  0  0  0  0  0  0  0  0
    9.0510   15.6730   23.6150 H   0  0  0  0  0  0  0  0  0  0  0  0
   10.2290   11.1720   22.8140 H   0  0  0  0  0  0  0  0  0  0  0  0
  1  2  1  0
  2  3  2  0
  3  4  1  0
  4  5  2  0
  5  6  1  0
  6  7  2  0
  7  8  1  0
  8  9  2  0
  9 10  1  0
 10 11  1  0
 11 12  2  0
 12 13  1  0
 13 14  2  0
 14 15  1  0
 15 16  2  0
 10 17  2  0
 17  2  1  0
  8  3  1  0
 16 11  1  0
  1 18  1  0
  1 19  1  0
  1 20  1  0
  4 21  1  0
  5 22  1  0
  6 23  1  0
  7 24  1  0
 12 25  1  0
 13 26  1  0
 14 27  1  0
 16 28  1  0
 17 29  1  0
A    1
 C1 
A    2
 C2 
A    3
 C3 
A    4
 C4 
A    5
 C5 
A    6
 C6 
A    7
 C7 
A    8
 C8 
A    9
 N1 
A   10
 C9 
A   11
 C10
A   12
 C11
A   13
 C12
A   14
 C13
A   15
 N2 
A   16
 C14
A   17
 C15
A   18
 H1 
A   19
 H2 
A   20
 H3 
A   21
 H4 
A   22
 H5 
A   23
 H6 
A   24
 H7 
A   25
 H8 
A   26
 H9 
A   27
 H10
A   28
 H11
A   29
 H12
M  END
>  <ref_pdb>  (3) 
x0554_0A

>  <ref_mols>  (3) 
x0451_0A,x0554_0A,x0556_0A,x0566_0A,x0310_0A,x0416_0A

>  <original SMILES>  (3) 
Cc1cc(-c2cccnc2)nc2ccccc12

>  <rationale>  (3) 
info cluster #2 (rank 1); hbond:S87; 

>  <cluster_rank>  (3) 
1

>  <N_interactions>  (3) 
1

>  <N_interactions_lost>  (3) 
0

>  <∆∆G>  (3) 
-8.839575

>  <comRMSD>  (3) 
0.540257

>  <N_rotatable_bonds>  (3) 
2

>  <N_unconstrained_atoms>  (3) 
0

>  <N_constrained_atoms>  (3) 
17

$$$$
Z637723732
     RDKit          3D

 28 30  0  0  0  0  0  0  0  0999 V2000
    8.9020    8.5220   23.6770 C   0  0  0  0  0  0  0  0  0  0  0  0
    9.5090    9.9000   23.7660 C   0  0  0  0  0  0  0  0  0  0  0  0
    8.7160   10.9700   24.3640 N   0  0  0  0  0  0  0  0  0  0  0  0
    8.9040   12.3110   24.1530 C   0  0  0  0  0  0  0  0  0  0  0  0
    9.9120   12.9880   23.3020 C   0  0  0  0  0  0  0  0  0  0  0  0
   11.2650   12.9050   23.4680 C   0  0  0  0  0  0  0  0  0  0  0  0
   11.7920   13.6810   22.4810 C   0  0  0  0  0  0  0  0  0  0  0  0
   10.7980   14.2290   21.7360 C   0  0  0  0  0  0  0  0  0  0  0  0
   11.0630   15.4820   20.1420 I   0  0  0  0  0  0  0  0  0  0  0  0
    9.6090   13.8080   22.2330 O   0  0  0  0  0  0  0  0  0  0  0  0
    8.0730   13.0530   24.8130 N   0  0  0  0  0  0  0  0  0  0  0  0
    7.2950   12.1980   25.4920 C   0  0  0  0  0  0  0  0  0  0  0  0
    6.2480   12.5100   26.3520 C   0  0  0  0  0  0  0  0  0  0  0  0
    5.5580   11.4760   26.9570 C   0  0  0  0  0  0  0  0  0  0  0  0
    4.5420   11.7450   27.7920 F   0  0  0  0  0  0  0  0  0  0  0  0
    5.9150   10.1600   26.7000 C   0  0  0  0  0  0  0  0  0  0  0  0
    6.9730    9.8410   25.8390 C   0  0  0  0  0  0  0  0  0  0  0  0
    7.6510   10.8800   25.2430 C   0  0  0  0  0  0  0  0  0  0  0  0
    9.5980    7.8320   23.1980 H   0  0  0  0  0  0  0  0  0  0  0  0
    8.0110    8.5430   23.0620 H   0  0  0  0  0  0  0  0  0  0  0  0
    8.6190    8.1510   24.6610 H   0  0  0  0  0  0  0  0  0  0  0  0
   10.4530    9.8500   24.3180 H   0  0  0  0  0  0  0  0  0  0  0  0
    9.7810   10.2250   22.7600 H   0  0  0  0  0  0  0  0  0  0  0  0
   11.7780   12.3360   24.2330 H   0  0  0  0  0  0  0  0  0  0  0  0
   12.8410   13.8460   22.3100 H   0  0  0  0  0  0  0  0  0  0  0  0
    5.9850   13.5470   26.5370 H   0  0  0  0  0  0  0  0  0  0  0  0
    5.3530    9.3770   27.1860 H   0  0  0  0  0  0  0  0  0  0  0  0
    7.2480    8.8250   25.6500 H   0  0  0  0  0  0  0  0  0  0  0  0
  1  2  1  0
  2  3  1  0
  3  4  1  0
  4  5  1  0
  5  6  2  0
  6  7  1  0
  7  8  2  0
  8  9  1  0
  8 10  1  0
  4 11  2  0
 11 12  1  0
 12 13  2  0
 13 14  1  0
 14 15  1  0
 14 16  2  0
 16 17  1  0
 17 18  2  0
 18  3  1  0
 10  5  1  0
 18 12  1  0
  1 19  1  0
  1 20  1  0
  1 21  1  0
  2 22  1  0
  2 23  1  0
  6 24  1  0
  7 25  1  0
 13 26  1  0
 16 27  1  0
 17 28  1  0
A    1
 C1 
A    2
 C2 
A    3
 N1 
A    4
 C3 
A    5
 C4 
A    6
 C5 
A    7
 C6 
A    8
 C7 
A    9
 I1 
A   10
 O1 
A   11
 N2 
A   12
 C8 
A   13
 C9 
A   14
 C10
A   15
 F1 
A   16
 C11
A   17
 C12
A   18
 C13
A   19
 H1 
A   20
 H2 
A   21
 H3 
A   22
 H4 
A   23
 H5 
A   24
 H6 
A   25
 H7 
A   26
 H8 
A   27
 H9 
A   28
 H10
M  END
>  <ref_pdb>  (4) 
x0554_0A

>  <ref_mols>  (4) 
x0451_0A,x0554_0A,x0556_0A,x0566_0A,x0310_0A,x0416_0A

>  <original SMILES>  (4) 
CCn1c(-c2ccc(I)o2)nc2cc(F)ccc21

>  <rationale>  (4) 
info cluster #13 (rank 1); 

>  <cluster_rank>  (4) 
1

>  <N_interactions>  (4) 
0

>  <N_interactions_lost>  (4) 
0

>  <∆∆G>  (4) 
-9.058253

>  <comRMSD>  (4) 
0.891339

>  <N_rotatable_bonds>  (4) 
3

>  <N_unconstrained_atoms>  (4) 
1

>  <N_constrained_atoms>  (4) 
17

$$$$
Z637739812
     RDKit          3D

 28 30  0  0  0  0  0  0  0  0999 V2000
    9.8820    8.8890   24.1590 C   0  0  0  0  0  0  0  0  0  0  0  0
    9.0460    9.8970   23.4810 C   0  0  0  0  0  0  0  0  0  0  0  0
    8.5340   11.0160   24.2550 N   0  0  0  0  0  0  0  0  0  0  0  0
    8.8830   12.3420   24.1580 C   0  0  0  0  0  0  0  0  0  0  0  0
    9.8230   12.9700   23.3280 C   0  0  0  0  0  0  0  0  0  0  0  0
   11.1710   12.8540   23.4580 C   0  0  0  0  0  0  0  0  0  0  0  0
   11.7660   13.6350   22.4640 C   0  0  0  0  0  0  0  0  0  0  0  0
   10.7420   14.1940   21.7810 C   0  0  0  0  0  0  0  0  0  0  0  0
   10.9910   15.4710   20.1980 I   0  0  0  0  0  0  0  0  0  0  0  0
    9.5410   13.8030   22.2810 O   0  0  0  0  0  0  0  0  0  0  0  0
    8.2150   13.0900   24.9860 N   0  0  0  0  0  0  0  0  0  0  0  0
    7.3990   12.2600   25.6620 C   0  0  0  0  0  0  0  0  0  0  0  0
    6.4710   12.5540   26.6610 C   0  0  0  0  0  0  0  0  0  0  0  0
    6.2780   13.8120   27.0890 F   0  0  0  0  0  0  0  0  0  0  0  0
    5.7290   11.5310   27.2260 C   0  0  0  0  0  0  0  0  0  0  0  0
    5.9210   10.2300   26.8000 C   0  0  0  0  0  0  0  0  0  0  0  0
    6.8490    9.9220   25.8060 C   0  0  0  0  0  0  0  0  0  0  0  0
    7.5730   10.9500   25.2440 C   0  0  0  0  0  0  0  0  0  0  0  0
   10.5090    8.3500   23.4420 H   0  0  0  0  0  0  0  0  0  0  0  0
    9.2260    8.1670   24.6480 H   0  0  0  0  0  0  0  0  0  0  0  0
   10.5440    9.3410   24.9030 H   0  0  0  0  0  0  0  0  0  0  0  0
    8.1910    9.3810   23.0650 H   0  0  0  0  0  0  0  0  0  0  0  0
    9.6090   10.3000   22.6390 H   0  0  0  0  0  0  0  0  0  0  0  0
   11.6640   12.2560   24.2140 H   0  0  0  0  0  0  0  0  0  0  0  0
   12.8200   13.7700   22.2810 H   0  0  0  0  0  0  0  0  0  0  0  0
    5.0050   11.7600   28.0000 H   0  0  0  0  0  0  0  0  0  0  0  0
    5.3350    9.4370   27.2530 H   0  0  0  0  0  0  0  0  0  0  0  0
    6.9940    8.9200   25.4920 H   0  0  0  0  0  0  0  0  0  0  0  0
  1  2  1  0
  2  3  1  0
  3  4  1  0
  4  5  1  0
  5  6  2  0
  6  7  1  0
  7  8  2  0
  8  9  1  0
  8 10  1  0
  4 11  2  0
 11 12  1  0
 12 13  2  0
 13 14  1  0
 13 15  1  0
 15 16  2  0
 16 17  1  0
 17 18  2  0
 18  3  1  0
 10  5  1  0
 18 12  1  0
  1 19  1  0
  1 20  1  0
  1 21  1  0
  2 22  1  0
  2 23  1  0
  6 24  1  0
  7 25  1  0
 15 26  1  0
 16 27  1  0
 17 28  1  0
A    1
 C1 
A    2
 C2 
A    3
 N1 
A    4
 C3 
A    5
 C4 
A    6
 C5 
A    7
 C6 
A    8
 C7 
A    9
 I1 
A   10
 O1 
A   11
 N2 
A   12
 C8 
A   13
 C9 
A   14
 F1 
A   15
 C10
A   16
 C11
A   17
 C12
A   18
 C13
A   19
 H1 
A   20
 H2 
A   21
 H3 
A   22
 H4 
A   23
 H5 
A   24
 H6 
A   25
 H7 
A   26
 H8 
A   27
 H9 
A   28
 H10
M  END
>  <ref_pdb>  (5) 
x0554_0A

>  <ref_mols>  (5) 
x0451_0A,x0554_0A,x0556_0A,x0566_0A,x0310_0A,x0416_0A

>  <original SMILES>  (5) 
CCn1c(-c2ccc(I)o2)nc2c(F)cccc21

>  <rationale>  (5) 
info cluster #0 (rank 1); hydroph_interaction:D109; 

>  <cluster_rank>  (5) 
1

>  <N_interactions>  (5) 
1

>  <N_interactions_lost>  (5) 
0

>  <∆∆G>  (5) 
-8.446664

>  <comRMSD>  (5) 
0.914655

>  <N_rotatable_bonds>  (5) 
3

>  <N_unconstrained_atoms>  (5) 
1

>  <N_constrained_atoms>  (5) 
17

$$$$
Z1391760839
     RDKit          3D

 28 30  0  0  0  0  0  0  0  0999 V2000
   11.3740   12.2940   24.1630 O   0  0  0  0  0  0  0  0  0  0  0  0
   10.5430   12.8880   23.5040 C   0  0  0  0  0  0  0  0  0  0  0  0
    9.1480   12.6640   23.5370 N   0  0  0  0  0  0  0  0  0  0  0  0
    8.7330   11.4190   24.0550 C   0  0  0  0  0  0  0  0  0  0  0  0
    9.3040   10.2950   23.5210 C   0  0  0  0  0  0  0  0  0  0  0  0
    8.8830    9.0690   24.0400 C   0  0  0  0  0  0  0  0  0  0  0  0
    7.9430    9.1270   25.0200 C   0  0  0  0  0  0  0  0  0  0  0  0
    7.3510   10.2440   25.5660 C   0  0  0  0  0  0  0  0  0  0  0  0
    6.3840   10.1760   26.5630 C   0  0  0  0  0  0  0  0  0  0  0  0
    5.8870   11.3320   27.0240 C   0  0  0  0  0  0  0  0  0  0  0  0
    6.2460   12.5090   26.6030 N   0  0  0  0  0  0  0  0  0  0  0  0
    7.1800   12.5610   25.6270 C   0  0  0  0  0  0  0  0  0  0  0  0
    7.7700   11.4400   25.0660 C   0  0  0  0  0  0  0  0  0  0  0  0
   10.7990   13.9390   22.5750 C   0  0  0  0  0  0  0  0  0  0  0  0
   11.9090   14.3110   21.8820 C   0  0  0  0  0  0  0  0  0  0  0  0
   11.6740   15.3820   21.1050 C   0  0  0  0  0  0  0  0  0  0  0  0
   10.3130   15.9000   21.1680 C   0  0  0  0  0  0  0  0  0  0  0  0
    9.6180   17.2250   20.3350 Cl  0  0  0  0  0  0  0  0  0  0  0  0
    9.4460   14.9470   22.2460 S   0  0  0  0  0  0  0  0  0  0  0  0
    8.5360   13.4530   23.6920 H   0  0  0  0  0  0  0  0  0  0  0  0
   10.0420   10.2960   22.7390 H   0  0  0  0  0  0  0  0  0  0  0  0
    9.2860    8.1250   23.6750 H   0  0  0  0  0  0  0  0  0  0  0  0
    7.6580    8.2000   25.3800 H   0  0  0  0  0  0  0  0  0  0  0  0
    6.0310    9.2550   26.9680 H   0  0  0  0  0  0  0  0  0  0  0  0
    5.1300   11.3260   27.8040 H   0  0  0  0  0  0  0  0  0  0  0  0
    7.4340   13.5680   25.3120 H   0  0  0  0  0  0  0  0  0  0  0  0
   12.8600   13.8210   21.9380 H   0  0  0  0  0  0  0  0  0  0  0  0
   12.4350   15.8250   20.4780 H   0  0  0  0  0  0  0  0  0  0  0  0
  1  2  2  0
  2  3  1  0
  3  4  1  0
  4  5  2  0
  5  6  1  0
  6  7  2  0
  7  8  1  0
  8  9  2  0
  9 10  1  0
 10 11  2  0
 11 12  1  0
 12 13  2  0
  2 14  1  0
 14 15  2  0
 15 16  1  0
 16 17  2  0
 17 18  1  0
 17 19  1  0
 13  4  1  0
 13  8  1  0
 19 14  1  0
  3 20  1  0
  5 21  1  0
  6 22  1  0
  7 23  1  0
  9 24  1  0
 10 25  1  0
 12 26  1  0
 15 27  1  0
 16 28  1  0
A    1
 O1 
A    2
 C1 
A    3
 N1 
A    4
 C2 
A    5
 C3 
A    6
 C4 
A    7
 C5 
A    8
 C6 
A    9
 C7 
A   10
 C8 
A   11
 N2 
A   12
 C9 
A   13
 C10
A   14
 C11
A   15
 C12
A   16
 C13
A   17
 C14
A   18
CL1 
A   19
 S1 
A   20
 H1 
A   21
 H2 
A   22
 H3 
A   23
 H4 
A   24
 H5 
A   25
 H6 
A   26
 H7 
A   27
 H8 
A   28
 H9 
M  END
>  <ref_pdb>  (6) 
x0554_0A

>  <ref_mols>  (6) 
x0451_0A,x0554_0A,x0556_0A,x0566_0A,x0310_0A,x0416_0A

>  <original SMILES>  (6) 
O=C(Nc1cccc2ccncc12)c1ccc(Cl)s1

>  <rationale>  (6) 
info cluster #1 (rank 1); hbond:T126+G127; hydroph_interaction:Y90; 

>  <cluster_rank>  (6) 
1

>  <N_interactions>  (6) 
3

>  <N_interactions_lost>  (6) 
0

>  <∆∆G>  (6) 
-7.658869

>  <comRMSD>  (6) 
0.710844

>  <N_rotatable_bonds>  (6) 
2

>  <N_unconstrained_atoms>  (6) 
1

>  <N_constrained_atoms>  (6) 
18

$$$$
Z50129832
     RDKit          3D

 25 27  0  0  0  0  0  0  0  0999 V2000
    9.1690    9.4000   23.9600 I   0  0  0  0  0  0  0  0  0  0  0  0
    7.7880   10.5680   25.0430 C   0  0  0  0  0  0  0  0  0  0  0  0
    6.8400    9.8110   25.8650 C   0  0  0  0  0  0  0  0  0  0  0  0
    5.8830   10.4710   26.6250 C   0  0  0  0  0  0  0  0  0  0  0  0
    5.8410   11.8610   26.5980 C   0  0  0  0  0  0  0  0  0  0  0  0
    6.7510   12.5790   25.8100 C   0  0  0  0  0  0  0  0  0  0  0  0
    7.7260   11.9350   25.0260 C   0  0  0  0  0  0  0  0  0  0  0  0
    8.6250   12.5880   24.2400 C   0  0  0  0  0  0  0  0  0  0  0  0
    9.9610   12.3440   24.2790 N   0  0  0  0  0  0  0  0  0  0  0  0
   10.4920   13.1810   23.3570 C   0  0  0  0  0  0  0  0  0  0  0  0
   11.8030   13.3740   22.9810 C   0  0  0  0  0  0  0  0  0  0  0  0
   12.1230   14.2860   22.0020 C   0  0  0  0  0  0  0  0  0  0  0  0
   11.1530   15.0290   21.3750 C   0  0  0  0  0  0  0  0  0  0  0  0
    9.8290   14.8530   21.7500 C   0  0  0  0  0  0  0  0  0  0  0  0
    9.5240   13.9320   22.7370 C   0  0  0  0  0  0  0  0  0  0  0  0
    8.3530   13.5440   23.3130 N   0  0  0  0  0  0  0  0  0  0  0  0
    6.8880    8.7660   25.8770 H   0  0  0  0  0  0  0  0  0  0  0  0
    5.1800    9.9020   27.2310 H   0  0  0  0  0  0  0  0  0  0  0  0
    5.0990   12.3910   27.1900 H   0  0  0  0  0  0  0  0  0  0  0  0
    6.6630   13.6610   25.8340 H   0  0  0  0  0  0  0  0  0  0  0  0
   12.5940   12.8080   23.4590 H   0  0  0  0  0  0  0  0  0  0  0  0
   13.1370   14.4390   21.7150 H   0  0  0  0  0  0  0  0  0  0  0  0
   11.4190   15.7450   20.6020 H   0  0  0  0  0  0  0  0  0  0  0  0
    9.0580   15.4460   21.2570 H   0  0  0  0  0  0  0  0  0  0  0  0
    7.4440   13.9080   23.0820 H   0  0  0  0  0  0  0  0  0  0  0  0
  1  2  1  0
  2  3  2  0
  3  4  1  0
  4  5  2  0
  5  6  1  0
  6  7  2  0
  7  8  1  0
  8  9  2  0
  9 10  1  0
 10 11  2  0
 11 12  1  0
 12 13  2  0
 13 14  1  0
 14 15  2  0
 15 16  1  0
  7  2  1  0
 16  8  1  0
 15 10  1  0
  3 17  1  0
  4 18  1  0
  5 19  1  0
  6 20  1  0
 11 21  1  0
 12 22  1  0
 13 23  1  0
 14 24  1  0
 16 25  1  0
A    1
 I1 
A    2
 C1 
A    3
 C2 
A    4
 C3 
A    5
 C4 
A    6
 C5 
A    7
 C6 
A    8
 C7 
A    9
 N1 
A   10
 C8 
A   11
 C9 
A   12
 C10
A   13
 C11
A   14
 C12
A   15
 C13
A   16
 N2 
A   17
 H1 
A   18
 H2 
A   19
 H3 
A   20
 H4 
A   21
 H5 
A   22
 H6 
A   23
 H7 
A   24
 H8 
A   25
 H9 
M  END
>  <ref_pdb>  (7) 
x0554_0A

>  <ref_mols>  (7) 
x0451_0A,x0554_0A,x0556_0A,x0566_0A,x0310_0A,x0416_0A

>  <original SMILES>  (7) 
Ic1ccccc1-c1nc2ccccc2[nH]1

>  <rationale>  (7) 
info cluster #10 (rank 1); hbond:G127; hydroph_interaction:Y89; 

>  <cluster_rank>  (7) 
1

>  <N_interactions>  (7) 
3

>  <N_interactions_lost>  (7) 
0

>  <∆∆G>  (7) 
-6.242755

>  <comRMSD>  (7) 
0.988549

>  <N_rotatable_bonds>  (7) 
1

>  <N_unconstrained_atoms>  (7) 
0

>  <N_constrained_atoms>  (7) 
16

$$$$
PV_002747934354
     RDKit          3D

 27 29  0  0  0  0  0  0  0  0999 V2000
    9.9780    9.0750   23.1440 N   0  0  0  0  0  0  0  0  0  0  0  0
    9.2910    9.6670   23.8520 C   0  0  0  0  0  0  0  0  0  0  0  0
    8.3520   10.2720   24.6620 C   0  0  0  0  0  0  0  0  0  0  0  0
    7.4720    9.4930   25.3330 C   0  0  0  0  0  0  0  0  0  0  0  0
    6.4730   10.0210   26.1540 C   0  0  0  0  0  0  0  0  0  0  0  0
    6.3620   11.3870   26.3160 C   0  0  0  0  0  0  0  0  0  0  0  0
    7.2570   12.2150   25.6590 C   0  0  0  0  0  0  0  0  0  0  0  0
    8.2240   11.6320   24.8550 C   0  0  0  0  0  0  0  0  0  0  0  0
    9.1090   12.5210   24.2180 C   0  0  0  0  0  0  0  0  0  0  0  0
   10.4300   12.3110   23.9570 C   0  0  0  0  0  0  0  0  0  0  0  0
   10.8430   13.4660   23.3100 C   0  0  0  0  0  0  0  0  0  0  0  0
   12.2360   13.6290   22.8500 C   0  0  0  0  0  0  0  0  0  0  0  0
   12.4870   14.8650   22.1950 C   0  0  0  0  0  0  0  0  0  0  0  0
   11.4510   15.7600   22.0670 C   0  0  0  0  0  0  0  0  0  0  0  0
   10.0900   15.5290   22.5600 C   0  0  0  0  0  0  0  0  0  0  0  0
    9.8550   14.3440   23.1760 C   0  0  0  0  0  0  0  0  0  0  0  0
    8.7630   13.7670   23.7470 N   0  0  0  0  0  0  0  0  0  0  0  0
    7.5660    8.4390   25.2170 H   0  0  0  0  0  0  0  0  0  0  0  0
    5.7820    9.3640   26.6690 H   0  0  0  0  0  0  0  0  0  0  0  0
    5.5930   11.8270   26.9490 H   0  0  0  0  0  0  0  0  0  0  0  0
    7.1880   13.2930   25.7820 H   0  0  0  0  0  0  0  0  0  0  0  0
   11.0130   11.4380   24.2030 H   0  0  0  0  0  0  0  0  0  0  0  0
   13.0060   12.8950   22.9890 H   0  0  0  0  0  0  0  0  0  0  0  0
   13.4580   15.1180   21.8060 H   0  0  0  0  0  0  0  0  0  0  0  0
   11.6550   16.7010   21.5680 H   0  0  0  0  0  0  0  0  0  0  0  0
    9.3120   16.2720   22.4310 H   0  0  0  0  0  0  0  0  0  0  0  0
    7.8450   14.1860   23.8090 H   0  0  0  0  0  0  0  0  0  0  0  0
  1  2  3  0
  2  3  1  0
  3  4  2  0
  4  5  1  0
  5  6  2  0
  6  7  1  0
  7  8  2  0
  8  9  1  0
  9 10  2  0
 10 11  1  0
 11 12  2  0
 12 13  1  0
 13 14  2  0
 14 15  1  0
 15 16  2  0
 16 17  1  0
  8  3  1  0
 17  9  1  0
 16 11  1  0
  4 18  1  0
  5 19  1  0
  6 20  1  0
  7 21  1  0
 10 22  1  0
 12 23  1  0
 13 24  1  0
 14 25  1  0
 15 26  1  0
 17 27  1  0
A    1
 N1 
A    2
 C1 
A    3
 C2 
A    4
 C3 
A    5
 C4 
A    6
 C5 
A    7
 C6 
A    8
 C7 
A    9
 C8 
A   10
 C9 
A   11
 C10
A   12
 C11
A   13
 C12
A   14
 C13
A   15
 C14
A   16
 C15
A   17
 N2 
A   18
 H1 
A   19
 H2 
A   20
 H3 
A   21
 H4 
A   22
 H5 
A   23
 H6 
A   24
 H7 
A   25
 H8 
A   26
 H9 
A   27
 H10
M  END
>  <ref_pdb>  (8) 
x0554_0A

>  <ref_mols>  (8) 
x0451_0A,x0554_0A,x0556_0A,x0566_0A,x0310_0A,x0416_0A

>  <original SMILES>  (8) 
N#Cc1ccccc1-c1cc2ccccc2[nH]1

>  <rationale>  (8) 
info cluster #6 (rank 1); hbond:C110; hydroph_interaction:Y89; 

>  <cluster_rank>  (8) 
1

>  <N_interactions>  (8) 
2

>  <N_interactions_lost>  (8) 
0

>  <∆∆G>  (8) 
-6.317393

>  <comRMSD>  (8) 
0.943099

>  <N_rotatable_bonds>  (8) 
1

>  <N_unconstrained_atoms>  (8) 
0

>  <N_constrained_atoms>  (8) 
17

$$$$
Z33398166
     RDKit          3D

 28 30  0  0  0  0  0  0  0  0999 V2000
    9.5610    7.6630   22.9430 O   0  0  0  0  0  0  0  0  0  0  0  0
    9.3750    8.7790   23.3920 C   0  0  0  0  0  0  0  0  0  0  0  0
   10.4030    9.8780   23.2910 C   0  0  0  0  0  0  0  0  0  0  0  0
   10.0680   11.1040   23.8770 N   0  0  0  0  0  0  0  0  0  0  0  0
   10.9740   12.1420   24.1360 C   0  0  0  0  0  0  0  0  0  0  0  0
   11.6690   12.1280   25.1540 O   0  0  0  0  0  0  0  0  0  0  0  0
   11.1000   13.2300   23.2770 C   0  0  0  0  0  0  0  0  0  0  0  0
   12.2740   13.9020   23.0290 C   0  0  0  0  0  0  0  0  0  0  0  0
   12.1350   14.9400   22.1270 C   0  0  0  0  0  0  0  0  0  0  0  0
   10.8590   15.0960   21.6680 C   0  0  0  0  0  0  0  0  0  0  0  0
    9.8230   13.9300   22.3780 S   0  0  0  0  0  0  0  0  0  0  0  0
    8.8280   11.2210   24.5700 C   0  0  0  0  0  0  0  0  0  0  0  0
    8.4390   12.4180   25.2510 C   0  0  0  0  0  0  0  0  0  0  0  0
    7.2760   12.6430   25.9620 C   0  0  0  0  0  0  0  0  0  0  0  0
    6.4410   11.5270   25.9720 C   0  0  0  0  0  0  0  0  0  0  0  0
    6.7390   10.3310   25.3360 C   0  0  0  0  0  0  0  0  0  0  0  0
    7.9320   10.1890   24.6290 C   0  0  0  0  0  0  0  0  0  0  0  0
    8.2060    9.0150   23.9890 N   0  0  0  0  0  0  0  0  0  0  0  0
   11.2440    9.4980   23.8830 H   0  0  0  0  0  0  0  0  0  0  0  0
   10.7910   10.0960   22.3030 H   0  0  0  0  0  0  0  0  0  0  0  0
   13.2100   13.6270   23.5010 H   0  0  0  0  0  0  0  0  0  0  0  0
   12.9530   15.5740   21.8090 H   0  0  0  0  0  0  0  0  0  0  0  0
   10.4810   15.8270   20.9610 H   0  0  0  0  0  0  0  0  0  0  0  0
    9.1100   13.2700   25.2310 H   0  0  0  0  0  0  0  0  0  0  0  0
    7.0420   13.5820   26.4570 H   0  0  0  0  0  0  0  0  0  0  0  0
    5.5140   11.6830   26.5330 H   0  0  0  0  0  0  0  0  0  0  0  0
    6.0260    9.5180   25.3960 H   0  0  0  0  0  0  0  0  0  0  0  0
    7.4490    8.5220   23.5480 H   0  0  0  0  0  0  0  0  0  0  0  0
  1  2  2  0
  2  3  1  0
  3  4  1  0
  4  5  1  0
  5  6  2  0
  5  7  1  0
  7  8  2  0
  8  9  1  0
  9 10  2  0
 10 11  1  0
  4 12  1  0
 12 13  2  0
 13 14  1  0
 14 15  2  0
 15 16  1  0
 16 17  2  0
 17 18  1  0
 18  2  1  0
 11  7  1  0
 17 12  1  0
  3 19  1  0
  3 20  1  0
  8 21  1  0
  9 22  1  0
 10 23  1  0
 13 24  1  0
 14 25  1  0
 15 26  1  0
 16 27  1  0
 18 28  1  0
A    1
 O1 
A    2
 C1 
A    3
 C2 
A    4
 N1 
A    5
 C3 
A    6
 O2 
A    7
 C4 
A    8
 C5 
A    9
 C6 
A   10
 C7 
A   11
 S1 
A   12
 C8 
A   13
 C9 
A   14
 C10
A   15
 C11
A   16
 C12
A   17
 C13
A   18
 N2 
A   19
 H1 
A   20
 H2 
A   21
 H3 
A   22
 H4 
A   23
 H5 
A   24
 H6 
A   25
 H7 
A   26
 H8 
A   27
 H9 
A   28
 H10
M  END
>  <ref_pdb>  (9) 
x0554_0A

>  <ref_mols>  (9) 
x0451_0A,x0554_0A,x0556_0A,x0566_0A,x0310_0A,x0416_0A

>  <original SMILES>  (9) 
O=C1CN(C(=O)c2cccs2)c2ccccc2N1

>  <rationale>  (9) 
info cluster #9 (rank 1); hbond:G108; hydroph_interaction:Y89; 

>  <cluster_rank>  (9) 
1

>  <N_interactions>  (9) 
2

>  <N_interactions_lost>  (9) 
0

>  <∆∆G>  (9) 
-6.372506

>  <comRMSD>  (9) 
0.698587

>  <N_rotatable_bonds>  (9) 
1

>  <N_unconstrained_atoms>  (9) 
1

>  <N_constrained_atoms>  (9) 
17

$$$$
PV_003024342714
     RDKit          3D

 31 33  0  0  0  0  0  0  0  0999 V2000
    9.6020    9.4590   23.4920 C   0  0  0  0  0  0  0  0  0  0  0  0
    9.1340   10.6100   24.1340 C   0  0  0  0  0  0  0  0  0  0  0  0
    9.7550   11.8910   24.0120 C   0  0  0  0  0  0  0  0  0  0  0  0
    9.3070   13.0480   24.6460 C   0  0  0  0  0  0  0  0  0  0  0  0
   10.0760   14.0540   24.3910 N   0  0  0  0  0  0  0  0  0  0  0  0
   11.2550   13.7710   23.8380 C   0  0  0  0  0  0  0  0  0  0  0  0
   11.9850   12.8590   24.1750 O   0  0  0  0  0  0  0  0  0  0  0  0
   11.5930   14.6030   22.7830 C   0  0  0  0  0  0  0  0  0  0  0  0
   12.2510   14.3150   21.6260 C   0  0  0  0  0  0  0  0  0  0  0  0
   12.3190   15.4530   20.9220 C   0  0  0  0  0  0  0  0  0  0  0  0
   11.6800   16.3930   21.6870 C   0  0  0  0  0  0  0  0  0  0  0  0
   11.2190   15.9240   22.8560 O   0  0  0  0  0  0  0  0  0  0  0  0
    8.2250   13.0530   25.4200 N   0  0  0  0  0  0  0  0  0  0  0  0
    7.6340   11.8980   25.5530 C   0  0  0  0  0  0  0  0  0  0  0  0
    6.5490   12.0530   26.3680 C   0  0  0  0  0  0  0  0  0  0  0  0
    5.7960   10.9510   26.6380 C   0  0  0  0  0  0  0  0  0  0  0  0
    6.1690    9.7590   26.0920 C   0  0  0  0  0  0  0  0  0  0  0  0
    7.2800    9.6400   25.2760 C   0  0  0  0  0  0  0  0  0  0  0  0
    8.0150   10.6970   24.9830 C   0  0  0  0  0  0  0  0  0  0  0  0
    8.8250    8.6890   23.4760 H   0  0  0  0  0  0  0  0  0  0  0  0
   10.4610    9.0540   24.0330 H   0  0  0  0  0  0  0  0  0  0  0  0
    9.8680    9.6760   22.4540 H   0  0  0  0  0  0  0  0  0  0  0  0
   10.6340   11.9750   23.3940 H   0  0  0  0  0  0  0  0  0  0  0  0
   10.0050   14.9930   24.7700 H   0  0  0  0  0  0  0  0  0  0  0  0
   12.6370   13.3460   21.3370 H   0  0  0  0  0  0  0  0  0  0  0  0
   12.7770   15.5820   19.9490 H   0  0  0  0  0  0  0  0  0  0  0  0
   11.5560   17.4160   21.3810 H   0  0  0  0  0  0  0  0  0  0  0  0
    6.3100   13.0320   26.7750 H   0  0  0  0  0  0  0  0  0  0  0  0
    4.9210   11.0320   27.2780 H   0  0  0  0  0  0  0  0  0  0  0  0
    5.5690    8.9320   26.3210 H   0  0  0  0  0  0  0  0  0  0  0  0
    7.6060    8.7230   24.8480 H   0  0  0  0  0  0  0  0  0  0  0  0
  1  2  1  0
  2  3  2  0
  3  4  1  0
  4  5  1  0
  5  6  1  0
  6  7  2  0
  6  8  1  0
  8  9  2  0
  9 10  1  0
 10 11  2  0
 11 12  1  0
  4 13  2  0
 13 14  1  0
 14 15  2  0
 15 16  1  0
 16 17  2  0
 17 18  1  0
 18 19  2  0
 19  2  1  0
 12  8  1  0
 19 14  1  0
  1 20  1  0
  1 21  1  0
  1 22  1  0
  3 23  1  0
  5 24  1  0
  9 25  1  0
 10 26  1  0
 11 27  1  0
 15 28  1  0
 16 29  1  0
 17 30  1  0
 18 31  1  0
A    1
 C1 
A    2
 C2 
A    3
 C3 
A    4
 C4 
A    5
 N1 
A    6
 C5 
A    7
 O1 
A    8
 C6 
A    9
 C7 
A   10
 C8 
A   11
 C9 
A   12
 O2 
A   13
 N2 
A   14
 C10
A   15
 C11
A   16
 C12
A   17
 C13
A   18
 C14
A   19
 C15
A   20
 H1 
A   21
 H2 
A   22
 H3 
A   23
 H4 
A   24
 H5 
A   25
 H6 
A   26
 H7 
A   27
 H8 
A   28
 H9 
A   29
 H10
A   30
 H11
A   31
 H12
M  END
>  <ref_pdb>  (10) 
x0554_0A

>  <ref_mols>  (10) 
x0451_0A,x0554_0A,x0556_0A,x0566_0A,x0310_0A,x0416_0A

>  <original SMILES>  (10) 
Cc1cc(NC(=O)c2ccco2)nc2ccccc12

>  <rationale>  (10) 
info cluster #7 (rank 1); hydroph_interaction:Y90; pistack:Y89; 

>  <cluster_rank>  (10) 
1

>  <N_interactions>  (10) 
2

>  <N_interactions_lost>  (10) 
0

>  <∆∆G>  (10) 
-9.1166

>  <comRMSD>  (10) 
0.981437

>  <N_rotatable_bonds>  (10) 
3

>  <N_unconstrained_atoms>  (10) 
0

>  <N_constrained_atoms>  (10) 
20

$$$$
PV_006879159602
     RDKit          3D

 32 34  0  0  0  0  0  0  0  0999 V2000
    8.6130    7.4740   23.5270 C   0  0  0  0  0  0  0  0  0  0  0  0
    8.5620    8.9280   23.9370 C   0  0  0  0  0  0  0  0  0  0  0  0
    9.5880    9.6450   23.2810 C   0  0  0  0  0  0  0  0  0  0  0  0
    9.7930   10.9270   23.4270 N   0  0  0  0  0  0  0  0  0  0  0  0
    8.9320   11.5920   24.2700 C   0  0  0  0  0  0  0  0  0  0  0  0
    9.1030   13.0100   24.4570 C   0  0  0  0  0  0  0  0  0  0  0  0
   10.1080   13.6860   23.8090 C   0  0  0  0  0  0  0  0  0  0  0  0
   11.3670   13.1470   23.7310 C   0  0  0  0  0  0  0  0  0  0  0  0
   12.3680   13.8160   23.0750 C   0  0  0  0  0  0  0  0  0  0  0  0
   12.1340   15.0510   22.4690 C   0  0  0  0  0  0  0  0  0  0  0  0
   10.8660   15.6000   22.5540 C   0  0  0  0  0  0  0  0  0  0  0  0
    9.8680   14.9130   23.2260 C   0  0  0  0  0  0  0  0  0  0  0  0
    8.6540   15.4680   23.2970 N   0  0  0  0  0  0  0  0  0  0  0  0
    8.2550   13.7260   25.2870 C   0  0  0  0  0  0  0  0  0  0  0  0
    7.2090   13.0630   25.9650 C   0  0  0  0  0  0  0  0  0  0  0  0
    7.0290   11.6830   25.8020 C   0  0  0  0  0  0  0  0  0  0  0  0
    7.8860   10.9690   24.9620 C   0  0  0  0  0  0  0  0  0  0  0  0
    7.7110    9.6160   24.7970 C   0  0  0  0  0  0  0  0  0  0  0  0
    8.4620    6.8190   24.3800 H   0  0  0  0  0  0  0  0  0  0  0  0
    7.8470    7.2640   22.7760 H   0  0  0  0  0  0  0  0  0  0  0  0
    9.5930    7.2530   23.1080 H   0  0  0  0  0  0  0  0  0  0  0  0
   10.2640    9.1310   22.6050 H   0  0  0  0  0  0  0  0  0  0  0  0
   11.5700   12.1860   24.1930 H   0  0  0  0  0  0  0  0  0  0  0  0
   13.3330   13.3610   23.0400 H   0  0  0  0  0  0  0  0  0  0  0  0
   12.9330   15.5720   21.9450 H   0  0  0  0  0  0  0  0  0  0  0  0
   10.6660   16.5620   22.0920 H   0  0  0  0  0  0  0  0  0  0  0  0
    8.5630   16.1070   22.5200 H   0  0  0  0  0  0  0  0  0  0  0  0
    7.9430   14.7470   23.2500 H   0  0  0  0  0  0  0  0  0  0  0  0
    8.3850   14.7990   25.4250 H   0  0  0  0  0  0  0  0  0  0  0  0
    6.5430   13.6230   26.6160 H   0  0  0  0  0  0  0  0  0  0  0  0
    6.2250   11.1680   26.3240 H   0  0  0  0  0  0  0  0  0  0  0  0
    6.9120    9.1240   25.3350 H   0  0  0  0  0  0  0  0  0  0  0  0
  1  2  1  0
  2  3  2  0
  3  4  1  0
  4  5  2  0
  5  6  1  0
  6  7  1  0
  7  8  2  0
  8  9  1  0
  9 10  2  0
 10 11  1  0
 11 12  2  0
 12 13  1  0
  6 14  2  0
 14 15  1  0
 15 16  2  0
 16 17  1  0
 17 18  2  0
 18  2  1  0
 17  5  1  0
 12  7  1  0
  1 19  1  0
  1 20  1  0
  1 21  1  0
  3 22  1  0
  8 23  1  0
  9 24  1  0
 10 25  1  0
 11 26  1  0
 13 27  1  0
 13 28  1  0
 14 29  1  0
 15 30  1  0
 16 31  1  0
 18 32  1  0
A    1
 C1 
A    2
 C2 
A    3
 C3 
A    4
 N1 
A    5
 C4 
A    6
 C5 
A    7
 C6 
A    8
 C7 
A    9
 C8 
A   10
 C9 
A   11
 C10
A   12
 C11
A   13
 N2 
A   14
 C12
A   15
 C13
A   16
 C14
A   17
 C15
A   18
 C16
A   19
 H1 
A   20
 H2 
A   21
 H3 
A   22
 H4 
A   23
 H5 
A   24
 H6 
A   25
 H7 
A   26
 H8 
A   27
 H9 
A   28
 H10
A   29
 H11
A   30
 H12
A   31
 H13
A   32
 H14
M  END
>  <ref_pdb>  (11) 
x0554_0A

>  <ref_mols>  (11) 
x0451_0A,x0554_0A,x0556_0A,x0566_0A,x0310_0A,x0416_0A

>  <original SMILES>  (11) 
Cc1cnc2c(-c3ccccc3N)cccc2c1

>  <rationale>  (11) 
info cluster #19 (rank 1); hbond:S87; hydroph_interaction:Y89+D109+V124; 

>  <cluster_rank>  (11) 
1

>  <N_interactions>  (11) 
5

>  <N_interactions_lost>  (11) 
0

>  <∆∆G>  (11) 
-7.997707

>  <comRMSD>  (11) 
0.702251

>  <N_rotatable_bonds>  (11) 
3

>  <N_unconstrained_atoms>  (11) 
0

>  <N_constrained_atoms>  (11) 
18

$$$$
Z28157901
     RDKit          3D

 25 26  0  0  0  0  0  0  0  0999 V2000
    6.8300   11.9970   26.8590 C   0  0  0  0  0  0  0  0  0  0  0  0
    6.6700   10.7810   26.0370 C   0  0  0  0  0  0  0  0  0  0  0  0
    5.9960    9.8640   26.4700 O   0  0  0  0  0  0  0  0  0  0  0  0
    7.2290   10.6790   24.8740 N   0  0  0  0  0  0  0  0  0  0  0  0
    8.3420   11.3340   24.4770 C   0  0  0  0  0  0  0  0  0  0  0  0
    9.5980   10.8810   24.8280 C   0  0  0  0  0  0  0  0  0  0  0  0
   10.7590   11.6150   24.3860 C   0  0  0  0  0  0  0  0  0  0  0  0
   10.5940   12.7530   23.6130 C   0  0  0  0  0  0  0  0  0  0  0  0
   11.6720   13.4770   23.1590 C   0  0  0  0  0  0  0  0  0  0  0  0
   11.4170   14.6380   22.3610 C   0  0  0  0  0  0  0  0  0  0  0  0
   10.1590   15.1040   22.0050 C   0  0  0  0  0  0  0  0  0  0  0  0
    9.0840   14.3590   22.4780 C   0  0  0  0  0  0  0  0  0  0  0  0
    9.3030   13.2150   23.2560 C   0  0  0  0  0  0  0  0  0  0  0  0
    8.1960   12.4910   23.7010 C   0  0  0  0  0  0  0  0  0  0  0  0
    7.8740   12.3180   26.8730 H   0  0  0  0  0  0  0  0  0  0  0  0
    6.2340   12.8200   26.4450 H   0  0  0  0  0  0  0  0  0  0  0  0
    6.4960   11.8230   27.8850 H   0  0  0  0  0  0  0  0  0  0  0  0
    7.1170    9.7140   24.5550 H   0  0  0  0  0  0  0  0  0  0  0  0
    9.7250    9.9880   25.4280 H   0  0  0  0  0  0  0  0  0  0  0  0
   11.7430   11.2650   24.6610 H   0  0  0  0  0  0  0  0  0  0  0  0
   12.6640   13.1070   23.4430 H   0  0  0  0  0  0  0  0  0  0  0  0
   12.2900   15.2010   22.0060 H   0  0  0  0  0  0  0  0  0  0  0  0
   10.0110   15.9900   21.4000 H   0  0  0  0  0  0  0  0  0  0  0  0
    8.0710   14.6550   22.2480 H   0  0  0  0  0  0  0  0  0  0  0  0
    7.2000   12.8250   23.4420 H   0  0  0  0  0  0  0  0  0  0  0  0
  1  2  1  0
  2  3  2  0
  2  4  1  0
  4  5  1  0
  5  6  2  0
  6  7  1  0
  7  8  2  0
  8  9  1  0
  9 10  2  0
 10 11  1  0
 11 12  2  0
 12 13  1  0
 13 14  2  0
 14  5  1  0
 13  8  1  0
  1 15  1  0
  1 16  1  0
  1 17  1  0
  4 18  1  0
  6 19  1  0
  7 20  1  0
  9 21  1  0
 10 22  1  0
 11 23  1  0
 12 24  1  0
 14 25  1  0
A    1
 C1 
A    2
 C2 
A    3
 O1 
A    4
 N1 
A    5
 C3 
A    6
 C4 
A    7
 C5 
A    8
 C6 
A    9
 C7 
A   10
 C8 
A   11
 C9 
A   12
 C10
A   13
 C11
A   14
 C12
A   15
 H1 
A   16
 H2 
A   17
 H3 
A   18
 H4 
A   19
 H5 
A   20
 H6 
A   21
 H7 
A   22
 H8 
A   23
 H9 
A   24
 H10
A   25
 H11
M  END
>  <ref_pdb>  (12) 
x0554_0A

>  <ref_mols>  (12) 
x0451_0A,x0554_0A,x0556_0A,x0566_0A,x0310_0A,x0416_0A

>  <original SMILES>  (12) 
CC(=O)Nc1ccc2ccccc2c1

>  <rationale>  (12) 
info cluster #4 (rank 1); hbond:S105; hydroph_interaction:Y89+P107; 

>  <cluster_rank>  (12) 
1

>  <N_interactions>  (12) 
3

>  <N_interactions_lost>  (12) 
0

>  <∆∆G>  (12) 
-6.863569

>  <comRMSD>  (12) 
0.407829

>  <N_rotatable_bonds>  (12) 
2

>  <N_unconstrained_atoms>  (12) 
2

>  <N_constrained_atoms>  (12) 
13

$$$$
Z31222907
     RDKit          3D

 30 32  0  0  0  0  0  0  0  0999 V2000
    9.6520    8.4410   22.9730 C   0  0  0  0  0  0  0  0  0  0  0  0
    9.0110    8.9610   24.0750 N   0  0  0  0  0  0  0  0  0  0  0  0
    8.8520   10.3910   24.2000 C   0  0  0  0  0  0  0  0  0  0  0  0
    9.5440   11.3370   23.5500 N   0  0  0  0  0  0  0  0  0  0  0  0
    9.3340   12.6560   23.7130 C   0  0  0  0  0  0  0  0  0  0  0  0
   10.0860   13.6870   22.9650 C   0  0  0  0  0  0  0  0  0  0  0  0
   11.2170   13.5030   22.2550 C   0  0  0  0  0  0  0  0  0  0  0  0
   11.8440   14.5520   21.5570 C   0  0  0  0  0  0  0  0  0  0  0  0
   11.2920   15.7960   21.6120 C   0  0  0  0  0  0  0  0  0  0  0  0
   10.1800   15.9900   22.3180 N   0  0  0  0  0  0  0  0  0  0  0  0
    9.6030   14.9630   22.9670 C   0  0  0  0  0  0  0  0  0  0  0  0
    8.3730   13.0800   24.5990 N   0  0  0  0  0  0  0  0  0  0  0  0
    7.6580   12.2140   25.2720 C   0  0  0  0  0  0  0  0  0  0  0  0
    6.6840   12.6540   26.1630 C   0  0  0  0  0  0  0  0  0  0  0  0
    5.9010   11.6940   26.8930 C   0  0  0  0  0  0  0  0  0  0  0  0
    6.1600   10.3500   26.6680 C   0  0  0  0  0  0  0  0  0  0  0  0
    7.1210    9.8930   25.7940 C   0  0  0  0  0  0  0  0  0  0  0  0
    7.8700   10.7690   25.0960 C   0  0  0  0  0  0  0  0  0  0  0  0
   10.6340    8.0460   23.2450 H   0  0  0  0  0  0  0  0  0  0  0  0
    9.0500    7.6260   22.5600 H   0  0  0  0  0  0  0  0  0  0  0  0
    9.8000    9.2070   22.2090 H   0  0  0  0  0  0  0  0  0  0  0  0
    9.4210    8.6220   24.9460 H   0  0  0  0  0  0  0  0  0  0  0  0
   11.6560   12.5820   22.2010 H   0  0  0  0  0  0  0  0  0  0  0  0
   12.7440   14.3610   20.9930 H   0  0  0  0  0  0  0  0  0  0  0  0
   11.7200   16.6360   21.1060 H   0  0  0  0  0  0  0  0  0  0  0  0
    8.7010   15.2230   23.5070 H   0  0  0  0  0  0  0  0  0  0  0  0
    6.5250   13.7280   26.2950 H   0  0  0  0  0  0  0  0  0  0  0  0
    5.1260   11.9570   27.6020 H   0  0  0  0  0  0  0  0  0  0  0  0
    5.5770    9.6220   27.2110 H   0  0  0  0  0  0  0  0  0  0  0  0
    7.2750    8.8350   25.6690 H   0  0  0  0  0  0  0  0  0  0  0  0
  1  2  1  0
  2  3  1  0
  3  4  2  0
  4  5  1  0
  5  6  1  0
  6  7  2  0
  7  8  1  0
  8  9  2  0
  9 10  1  0
 10 11  2  0
  5 12  2  0
 12 13  1  0
 13 14  2  0
 14 15  1  0
 15 16  2  0
 16 17  1  0
 17 18  2  0
 18  3  1  0
 11  6  1  0
 18 13  1  0
  1 19  1  0
  1 20  1  0
  1 21  1  0
  2 22  1  0
  7 23  1  0
  8 24  1  0
  9 25  1  0
 11 26  1  0
 14 27  1  0
 15 28  1  0
 16 29  1  0
 17 30  1  0
A    1
 C1 
A    2
 N1 
A    3
 C2 
A    4
 N2 
A    5
 C3 
A    6
 C4 
A    7
 C5 
A    8
 C6 
A    9
 C7 
A   10
 N3 
A   11
 C8 
A   12
 N4 
A   13
 C9 
A   14
 C10
A   15
 C11
A   16
 C12
A   17
 C13
A   18
 C14
A   19
 H1 
A   20
 H2 
A   21
 H3 
A   22
 H4 
A   23
 H5 
A   24
 H6 
A   25
 H7 
A   26
 H8 
A   27
 H9 
A   28
 H10
A   29
 H11
A   30
 H12
M  END
>  <ref_pdb>  (13) 
x0554_0A

>  <ref_mols>  (13) 
x0451_0A,x0554_0A,x0556_0A,x0566_0A,x0310_0A,x0416_0A

>  <original SMILES>  (13) 
CNc1nc(-c2cccnc2)nc2ccccc12

>  <rationale>  (13) 
info cluster #16 (rank 1); hbond:S87+E106; 

>  <cluster_rank>  (13) 
1

>  <N_interactions>  (13) 
2

>  <N_interactions_lost>  (13) 
0

>  <∆∆G>  (13) 
-7.778339

>  <comRMSD>  (13) 
0.587525

>  <N_rotatable_bonds>  (13) 
3

>  <N_unconstrained_atoms>  (13) 
1

>  <N_constrained_atoms>  (13) 
17

$$$$
Z46054227
     RDKit          3D

 29 31  0  0  0  0  0  0  0  0999 V2000
   12.3650   12.3320   24.8620 O   0  0  0  0  0  0  0  0  0  0  0  0
   11.3900   12.7010   24.2050 C   0  0  0  0  0  0  0  0  0  0  0  0
   10.0160   12.3240   24.5800 C   0  0  0  0  0  0  0  0  0  0  0  0
    9.6750   10.9640   25.1330 C   0  0  0  0  0  0  0  0  0  0  0  0
    8.2740   10.8160   25.5190 C   0  0  0  0  0  0  0  0  0  0  0  0
    7.4430    9.7910   25.2360 C   0  0  0  0  0  0  0  0  0  0  0  0
    6.0990    9.8610   25.7480 C   0  0  0  0  0  0  0  0  0  0  0  0
    5.6560   10.8970   26.4820 C   0  0  0  0  0  0  0  0  0  0  0  0
    6.4520   11.9430   26.7830 C   0  0  0  0  0  0  0  0  0  0  0  0
    7.8420   11.8990   26.2700 C   0  0  0  0  0  0  0  0  0  0  0  0
    9.1540   13.3910   24.3180 C   0  0  0  0  0  0  0  0  0  0  0  0
    9.8180   13.8960   23.1290 C   0  0  0  0  0  0  0  0  0  0  0  0
    9.2740   14.6870   22.1230 C   0  0  0  0  0  0  0  0  0  0  0  0
   10.0890   15.0630   21.0460 C   0  0  0  0  0  0  0  0  0  0  0  0
   11.4270   14.6420   21.0040 C   0  0  0  0  0  0  0  0  0  0  0  0
   11.9470   13.8590   22.0140 C   0  0  0  0  0  0  0  0  0  0  0  0
   11.1420   13.4990   23.0510 C   0  0  0  0  0  0  0  0  0  0  0  0
   10.3780   10.1460   25.2850 H   0  0  0  0  0  0  0  0  0  0  0  0
    7.7830    8.9470   24.6500 H   0  0  0  0  0  0  0  0  0  0  0  0
    5.3930    9.1070   25.5760 H   0  0  0  0  0  0  0  0  0  0  0  0
    4.6320   10.8910   26.8410 H   0  0  0  0  0  0  0  0  0  0  0  0
    6.0960   12.7830   27.3760 H   0  0  0  0  0  0  0  0  0  0  0  0
    8.5310   12.7110   26.4820 H   0  0  0  0  0  0  0  0  0  0  0  0
    8.1610   13.0100   24.0500 H   0  0  0  0  0  0  0  0  0  0  0  0
    8.9930   13.9660   25.2180 H   0  0  0  0  0  0  0  0  0  0  0  0
    8.2400   15.0060   22.1640 H   0  0  0  0  0  0  0  0  0  0  0  0
    9.6800   15.6790   20.2510 H   0  0  0  0  0  0  0  0  0  0  0  0
   12.0620   14.9320   20.1660 H   0  0  0  0  0  0  0  0  0  0  0  0
   12.9510   13.5280   22.0000 H   0  0  0  0  0  0  0  0  0  0  0  0
  1  2  2  0
  2  3  1  0
  3  4  2  3
  4  5  1  0
  5  6  2  0
  6  7  1  0
  7  8  2  0
  8  9  1  0
  9 10  2  0
  3 11  1  0
 11 12  1  0
 12 13  2  0
 13 14  1  0
 14 15  2  0
 15 16  1  0
 16 17  2  0
 17  2  1  0
 10  5  1  0
 17 12  1  0
  4 18  1  0
  6 19  1  0
  7 20  1  0
  8 21  1  0
  9 22  1  0
 10 23  1  0
 11 24  1  0
 11 25  1  0
 13 26  1  0
 14 27  1  0
 15 28  1  0
 16 29  1  0
A    1
 O1 
A    2
 C1 
A    3
 C2 
A    4
 C3 
A    5
 C4 
A    6
 C5 
A    7
 C6 
A    8
 C7 
A    9
 C8 
A   10
 C9 
A   11
 C10
A   12
 C11
A   13
 C12
A   14
 C13
A   15
 C14
A   16
 C15
A   17
 C16
A   18
 H1 
A   19
 H2 
A   20
 H3 
A   21
 H4 
A   22
 H5 
A   23
 H6 
A   24
 H7 
A   25
 H8 
A   26
 H9 
A   27
 H10
A   28
 H11
A   29
 H12
M  END
>  <ref_pdb>  (14) 
x0554_0A

>  <ref_mols>  (14) 
x0451_0A,x0554_0A,x0556_0A,x0566_0A,x0310_0A,x0416_0A

>  <original SMILES>  (14) 
O=C1C(=Cc2ccccc2)Cc2ccccc21

>  <rationale>  (14) 
info cluster #18 (rank 1); hydroph_interaction:P107; 

>  <cluster_rank>  (14) 
1

>  <N_interactions>  (14) 
1

>  <N_interactions_lost>  (14) 
0

>  <∆∆G>  (14) 
-6.408551

>  <comRMSD>  (14) 
0.805223

>  <N_rotatable_bonds>  (14) 
1

>  <N_unconstrained_atoms>  (14) 
0

>  <N_constrained_atoms>  (14) 
18

$$$$
Z90290427
     RDKit          3D

 28 30  0  0  0  0  0  0  0  0999 V2000
    7.9330   13.2800   26.6200 O   0  0  0  0  0  0  0  0  0  0  0  0
    7.6630   12.1890   26.1490 C   0  0  0  0  0  0  0  0  0  0  0  0
    6.4860   11.4700   26.6920 C   0  0  0  0  0  0  0  0  0  0  0  0
    5.7060   12.1430   27.7570 C   0  0  0  0  0  0  0  0  0  0  0  0
    4.4820   11.4110   28.3110 C   0  0  0  0  0  0  0  0  0  0  0  0
    4.2780   10.1710   27.6800 C   0  0  0  0  0  0  0  0  0  0  0  0
    5.0110    9.5920   26.7070 C   0  0  0  0  0  0  0  0  0  0  0  0
    6.1310   10.1630   26.1800 C   0  0  0  0  0  0  0  0  0  0  0  0
    6.9280    9.5540   25.2060 N   0  0  0  0  0  0  0  0  0  0  0  0
    7.9500   10.2330   24.7640 C   0  0  0  0  0  0  0  0  0  0  0  0
    8.9340    9.3890   23.6320 S   0  0  0  0  0  0  0  0  0  0  0  0
    8.3200   11.5190   25.1190 N   0  0  0  0  0  0  0  0  0  0  0  0
    8.9630   12.3600   24.1880 C   0  0  0  0  0  0  0  0  0  0  0  0
    8.2250   13.3250   23.4480 C   0  0  0  0  0  0  0  0  0  0  0  0
    8.8760   14.1440   22.5510 C   0  0  0  0  0  0  0  0  0  0  0  0
   10.2490   14.0270   22.3710 C   0  0  0  0  0  0  0  0  0  0  0  0
   11.1490   15.1530   21.1490 Br  0  0  0  0  0  0  0  0  0  0  0  0
   10.9770   13.0940   23.0800 C   0  0  0  0  0  0  0  0  0  0  0  0
   10.3340   12.2560   23.9900 C   0  0  0  0  0  0  0  0  0  0  0  0
    5.9890   13.1220   28.1350 H   0  0  0  0  0  0  0  0  0  0  0  0
    3.8430   11.8100   29.0960 H   0  0  0  0  0  0  0  0  0  0  0  0
    3.4190    9.6040   28.0180 H   0  0  0  0  0  0  0  0  0  0  0  0
    4.6780    8.6630   26.3700 H   0  0  0  0  0  0  0  0  0  0  0  0
    7.9520    9.2300   22.7270 H   0  0  0  0  0  0  0  0  0  0  0  0
    7.1470   13.4310   23.5790 H   0  0  0  0  0  0  0  0  0  0  0  0
    8.3020   14.8790   21.9920 H   0  0  0  0  0  0  0  0  0  0  0  0
   12.0490   13.0130   22.9330 H   0  0  0  0  0  0  0  0  0  0  0  0
   10.9290   11.5300   24.5380 H   0  0  0  0  0  0  0  0  0  0  0  0
  1  2  2  0
  2  3  1  0
  3  4  2  0
  4  5  1  0
  5  6  2  0
  6  7  1  0
  7  8  2  0
  8  9  1  0
  9 10  2  0
 10 11  1  0
 10 12  1  0
 12 13  1  0
 13 14  2  0
 14 15  1  0
 15 16  2  0
 16 17  1  0
 16 18  1  0
 18 19  2  0
 12  2  1  0
  8  3  1  0
 19 13  1  0
  4 20  1  0
  5 21  1  0
  6 22  1  0
  7 23  1  0
 11 24  1  0
 14 25  1  0
 15 26  1  0
 18 27  1  0
 19 28  1  0
A    1
 O1 
A    2
 C1 
A    3
 C2 
A    4
 C3 
A    5
 C4 
A    6
 C5 
A    7
 C6 
A    8
 C7 
A    9
 N1 
A   10
 C8 
A   11
 S1 
A   12
 N2 
A   13
 C9 
A   14
 C10
A   15
 C11
A   16
 C12
A   17
BR1 
A   18
 C13
A   19
 C14
A   20
 H1 
A   21
 H2 
A   22
 H3 
A   23
 H4 
A   24
 H5 
A   25
 H6 
A   26
 H7 
A   27
 H8 
A   28
 H9 
M  END
>  <ref_pdb>  (15) 
x0554_0A

>  <ref_mols>  (15) 
x0451_0A,x0554_0A,x0556_0A,x0566_0A,x0310_0A,x0416_0A

>  <original SMILES>  (15) 
O=c1c2ccccc2nc(S)n1-c1ccc(Br)cc1

>  <rationale>  (15) 
info cluster #15 (rank 1); hbond:S105; 

>  <cluster_rank>  (15) 
1

>  <N_interactions>  (15) 
1

>  <N_interactions_lost>  (15) 
0

>  <∆∆G>  (15) 
-5.542909

>  <comRMSD>  (15) 
0.965006

>  <N_rotatable_bonds>  (15) 
1

>  <N_unconstrained_atoms>  (15) 
1

>  <N_constrained_atoms>  (15) 
18

$$$$
PV_002859390405
     RDKit          3D

 29 31  0  0  0  0  0  0  0  0999 V2000
   12.0570   14.2960   20.0090 C   0  0  0  0  0  0  0  0  0  0  0  0
   11.4030   14.5480   21.3080 C   0  0  0  0  0  0  0  0  0  0  0  0
   11.3830   15.7980   21.8080 C   0  0  0  0  0  0  0  0  0  0  0  0
   10.7580   16.0520   23.0000 N   0  0  0  0  0  0  0  0  0  0  0  0
   10.1800   15.0610   23.6280 C   0  0  0  0  0  0  0  0  0  0  0  0
   10.1370   13.7870   23.2330 C   0  0  0  0  0  0  0  0  0  0  0  0
    9.4660   12.7010   23.9220 C   0  0  0  0  0  0  0  0  0  0  0  0
    8.4490   13.0830   24.6860 N   0  0  0  0  0  0  0  0  0  0  0  0
    7.7350   12.1500   25.3110 C   0  0  0  0  0  0  0  0  0  0  0  0
    6.7190   12.5330   26.2600 C   0  0  0  0  0  0  0  0  0  0  0  0
    5.9790   11.5460   26.8910 C   0  0  0  0  0  0  0  0  0  0  0  0
    6.2110   10.2080   26.6190 C   0  0  0  0  0  0  0  0  0  0  0  0
    7.2030    9.8240   25.7000 C   0  0  0  0  0  0  0  0  0  0  0  0
    7.9420   10.8010   25.0630 C   0  0  0  0  0  0  0  0  0  0  0  0
    8.9240   10.4320   24.1430 C   0  0  0  0  0  0  0  0  0  0  0  0
    8.9750    9.2870   23.6940 O   0  0  0  0  0  0  0  0  0  0  0  0
    9.8100   11.3660   23.7680 N   0  0  0  0  0  0  0  0  0  0  0  0
   10.7630   13.5390   22.0820 C   0  0  0  0  0  0  0  0  0  0  0  0
   11.3170   14.2340   19.2040 H   0  0  0  0  0  0  0  0  0  0  0  0
   12.5960   13.3740   20.0120 H   0  0  0  0  0  0  0  0  0  0  0  0
   12.7500   15.1020   19.7560 H   0  0  0  0  0  0  0  0  0  0  0  0
   11.8390   16.6350   21.3130 H   0  0  0  0  0  0  0  0  0  0  0  0
    9.6940   15.3690   24.5660 H   0  0  0  0  0  0  0  0  0  0  0  0
    6.5340   13.5800   26.4750 H   0  0  0  0  0  0  0  0  0  0  0  0
    5.2140   11.8290   27.6030 H   0  0  0  0  0  0  0  0  0  0  0  0
    5.5860    9.4870   27.1570 H   0  0  0  0  0  0  0  0  0  0  0  0
    7.4130    8.7920   25.4700 H   0  0  0  0  0  0  0  0  0  0  0  0
   10.4520   11.0570   23.0500 H   0  0  0  0  0  0  0  0  0  0  0  0
   10.7280   12.5600   21.8100 H   0  0  0  0  0  0  0  0  0  0  0  0
  1  2  1  0
  2  3  2  0
  3  4  1  0
  4  5  2  0
  5  6  1  0
  6  7  1  0
  7  8  2  0
  8  9  1  0
  9 10  2  0
 10 11  1  0
 11 12  2  0
 12 13  1  0
 13 14  2  0
 14 15  1  0
 15 16  2  0
 15 17  1  0
  6 18  2  0
 18  2  1  0
 17  7  1  0
 14  9  1  0
  1 19  1  0
  1 20  1  0
  1 21  1  0
  3 22  1  0
  5 23  1  0
 10 24  1  0
 11 25  1  0
 12 26  1  0
 13 27  1  0
 17 28  1  0
 18 29  1  0
A    1
 C1 
A    2
 C2 
A    3
 C3 
A    4
 N1 
A    5
 C4 
A    6
 C5 
A    7
 C6 
A    8
 N2 
A    9
 C7 
A   10
 C8 
A   11
 C9 
A   12
 C10
A   13
 C11
A   14
 C12
A   15
 C13
A   16
 O1 
A   17
 N3 
A   18
 C14
A   19
 H1 
A   20
 H2 
A   21
 H3 
A   22
 H4 
A   23
 H5 
A   24
 H6 
A   25
 H7 
A   26
 H8 
A   27
 H9 
A   28
 H10
A   29
 H11
M  END
>  <ref_pdb>  (16) 
x0554_0A

>  <ref_mols>  (16) 
x0451_0A,x0554_0A,x0556_0A,x0566_0A,x0310_0A,x0416_0A

>  <original SMILES>  (16) 
Cc1cncc(-c2nc3ccccc3c(=O)[nH]2)c1

>  <rationale>  (16) 
info cluster #8 (rank 1); hbond:S125+S87; 

>  <cluster_rank>  (16) 
1

>  <N_interactions>  (16) 
2

>  <N_interactions_lost>  (16) 
0

>  <∆∆G>  (16) 
-6.2405

>  <comRMSD>  (16) 
0.660447

>  <N_rotatable_bonds>  (16) 
2

>  <N_unconstrained_atoms>  (16) 
1

>  <N_constrained_atoms>  (16) 
17

$$$$
Z31717175
     RDKit          3D

 26 27  0  0  0  0  0  0  0  0999 V2000
    6.2220   10.0000   25.5830 O   0  0  0  0  0  0  0  0  0  0  0  0
    6.5710   11.1390   25.8490 C   0  0  0  0  0  0  0  0  0  0  0  0
    7.6440   11.8600   25.4040 N   0  0  0  0  0  0  0  0  0  0  0  0
    8.6570   11.4060   24.5730 C   0  0  0  0  0  0  0  0  0  0  0  0
    9.6140   12.2380   24.0300 C   0  0  0  0  0  0  0  0  0  0  0  0
   10.5740   11.7030   23.2130 C   0  0  0  0  0  0  0  0  0  0  0  0
   11.5240   12.5090   22.6740 O   0  0  0  0  0  0  0  0  0  0  0  0
   10.5860   10.3390   22.9260 C   0  0  0  0  0  0  0  0  0  0  0  0
    9.6400    9.5060   23.4680 C   0  0  0  0  0  0  0  0  0  0  0  0
    8.6760   10.0480   24.2960 C   0  0  0  0  0  0  0  0  0  0  0  0
    5.7550   11.8940   26.7900 C   0  0  0  0  0  0  0  0  0  0  0  0
    5.5130   13.2620   26.6650 C   0  0  0  0  0  0  0  0  0  0  0  0
    4.7300   13.8890   27.6230 C   0  0  0  0  0  0  0  0  0  0  0  0
    4.2260   13.1200   28.6590 C   0  0  0  0  0  0  0  0  0  0  0  0
    4.4470   11.7970   28.7930 N   0  0  0  0  0  0  0  0  0  0  0  0
    5.2090   11.2090   27.8510 C   0  0  0  0  0  0  0  0  0  0  0  0
    7.5370   12.8640   25.4120 H   0  0  0  0  0  0  0  0  0  0  0  0
    9.6220   13.3020   24.2330 H   0  0  0  0  0  0  0  0  0  0  0  0
   11.6290   12.2280   21.7430 H   0  0  0  0  0  0  0  0  0  0  0  0
   11.3260    9.9200   22.2820 H   0  0  0  0  0  0  0  0  0  0  0  0
    9.6490    8.4410   23.2490 H   0  0  0  0  0  0  0  0  0  0  0  0
    7.9360    9.3990   24.7240 H   0  0  0  0  0  0  0  0  0  0  0  0
    5.9230   13.8420   25.8430 H   0  0  0  0  0  0  0  0  0  0  0  0
    4.5130   14.9500   27.5670 H   0  0  0  0  0  0  0  0  0  0  0  0
    3.6060   13.5640   29.4360 H   0  0  0  0  0  0  0  0  0  0  0  0
    5.3750   10.1410   27.9840 H   0  0  0  0  0  0  0  0  0  0  0  0
  1  2  2  0
  2  3  1  0
  3  4  1  0
  4  5  2  0
  5  6  1  0
  6  7  1  0
  6  8  2  0
  8  9  1  0
  9 10  2  0
  2 11  1  0
 11 12  2  0
 12 13  1  0
 13 14  2  0
 14 15  1  0
 15 16  2  0
 10  4  1  0
 16 11  1  0
  3 17  1  0
  5 18  1  0
  7 19  1  0
  8 20  1  0
  9 21  1  0
 10 22  1  0
 12 23  1  0
 13 24  1  0
 14 25  1  0
 16 26  1  0
A    1
 O1 
A    2
 C1 
A    3
 N1 
A    4
 C2 
A    5
 C3 
A    6
 C4 
A    7
 O2 
A    8
 C5 
A    9
 C6 
A   10
 C7 
A   11
 C8 
A   12
 C9 
A   13
 C10
A   14
 C11
A   15
 N2 
A   16
 C12
A   17
 H1 
A   18
 H2 
A   19
 H3 
A   20
 H4 
A   21
 H5 
A   22
 H6 
A   23
 H7 
A   24
 H8 
A   25
 H9 
A   26
 H10
M  END
>  <ref_pdb>  (17) 
x0554_0A

>  <ref_mols>  (17) 
x0451_0A,x0554_0A,x0556_0A,x0566_0A,x0310_0A,x0416_0A

>  <original SMILES>  (17) 
O=C(Nc1cccc(O)c1)c1cccnc1

>  <rationale>  (17) 
info cluster #5 (rank 1); hbond:H21; 

>  <cluster_rank>  (17) 
1

>  <N_interactions>  (17) 
1

>  <N_interactions_lost>  (17) 
0

>  <∆∆G>  (17) 
-5.950307

>  <comRMSD>  (17) 
0.461496

>  <N_rotatable_bonds>  (17) 
3

>  <N_unconstrained_atoms>  (17) 
0

>  <N_constrained_atoms>  (17) 
16

$$$$
PV_002714330479
     RDKit          3D

 29 30  0  0  0  0  0  0  0  0999 V2000
   12.4060   14.9470   21.3480 C   0  0  0  0  0  0  0  0  0  0  0  0
   11.5980   14.2040   22.4210 C   0  0  0  0  0  0  0  0  0  0  0  0
   11.5670   12.8610   22.7370 C   0  0  0  0  0  0  0  0  0  0  0  0
   10.6160   12.4850   23.8330 C   0  0  0  0  0  0  0  0  0  0  0  0
   10.3740   11.2470   24.3210 N   0  0  0  0  0  0  0  0  0  0  0  0
    9.7810   10.3290   23.5110 C   0  0  0  0  0  0  0  0  0  0  0  0
   10.3410    9.7690   22.5830 O   0  0  0  0  0  0  0  0  0  0  0  0
    8.5320   10.0920   23.8520 N   0  0  0  0  0  0  0  0  0  0  0  0
    7.7060   10.7400   24.7970 C   0  0  0  0  0  0  0  0  0  0  0  0
    7.4910   12.1060   24.9100 C   0  0  0  0  0  0  0  0  0  0  0  0
    6.6640   12.5850   25.8670 C   0  0  0  0  0  0  0  0  0  0  0  0
    6.0080   11.7290   26.7580 C   0  0  0  0  0  0  0  0  0  0  0  0
    5.1670   12.5570   27.6980 C   0  0  0  0  0  0  0  0  0  0  0  0
    4.5430   13.2190   28.4120 N   0  0  0  0  0  0  0  0  0  0  0  0
    6.2150   10.3880   26.6480 C   0  0  0  0  0  0  0  0  0  0  0  0
    7.0580    9.8960   25.6810 C   0  0  0  0  0  0  0  0  0  0  0  0
   10.0250   13.6480   24.2610 C   0  0  0  0  0  0  0  0  0  0  0  0
   10.5440   15.0560   23.4260 S   0  0  0  0  0  0  0  0  0  0  0  0
   11.8640   15.8360   21.0200 H   0  0  0  0  0  0  0  0  0  0  0  0
   13.3590   15.2950   21.7460 H   0  0  0  0  0  0  0  0  0  0  0  0
   12.5890   14.2980   20.4890 H   0  0  0  0  0  0  0  0  0  0  0  0
   12.1440   12.0590   22.2770 H   0  0  0  0  0  0  0  0  0  0  0  0
   11.0120   10.9170   25.0260 H   0  0  0  0  0  0  0  0  0  0  0  0
    8.2140    9.1730   23.5950 H   0  0  0  0  0  0  0  0  0  0  0  0
    7.9680   12.8210   24.2460 H   0  0  0  0  0  0  0  0  0  0  0  0
    6.5090   13.6660   25.9390 H   0  0  0  0  0  0  0  0  0  0  0  0
    5.7190    9.6930   27.3240 H   0  0  0  0  0  0  0  0  0  0  0  0
    7.2270    8.8430   25.5970 H   0  0  0  0  0  0  0  0  0  0  0  0
    9.2830   13.7660   25.0470 H   0  0  0  0  0  0  0  0  0  0  0  0
  1  2  1  0
  2  3  2  0
  3  4  1  0
  4  5  1  0
  5  6  1  0
  6  7  2  0
  6  8  1  0
  8  9  1  0
  9 10  2  0
 10 11  1  0
 11 12  2  0
 12 13  1  0
 13 14  3  0
 12 15  1  0
 15 16  2  0
  4 17  2  0
 17 18  1  0
 18  2  1  0
 16  9  1  0
  1 19  1  0
  1 20  1  0
  1 21  1  0
  3 22  1  0
  5 23  1  0
  8 24  1  0
 10 25  1  0
 11 26  1  0
 15 27  1  0
 16 28  1  0
 17 29  1  0
A    1
 C1 
A    2
 C2 
A    3
 C3 
A    4
 C4 
A    5
 N1 
A    6
 C5 
A    7
 O1 
A    8
 N2 
A    9
 C6 
A   10
 C7 
A   11
 C8 
A   12
 C9 
A   13
 C10
A   14
 N3 
A   15
 C11
A   16
 C12
A   17
 C13
A   18
 S1 
A   19
 H1 
A   20
 H2 
A   21
 H3 
A   22
 H4 
A   23
 H5 
A   24
 H6 
A   25
 H7 
A   26
 H8 
A   27
 H9 
A   28
 H10
A   29
 H11
M  END
>  <ref_pdb>  (18) 
x0554_0A

>  <ref_mols>  (18) 
x0451_0A,x0554_0A,x0556_0A,x0566_0A,x0310_0A,x0416_0A

>  <original SMILES>  (18) 
Cc1cc(NC(=O)Nc2ccc(C#N)cc2)cs1

>  <rationale>  (18) 
info cluster #3 (rank 1); hbond:C110+T126; hydroph_interaction:Y89; 

>  <cluster_rank>  (18) 
1

>  <N_interactions>  (18) 
3

>  <N_interactions_lost>  (18) 
0

>  <∆∆G>  (18) 
-6.837305

>  <comRMSD>  (18) 
0.759465

>  <N_rotatable_bonds>  (18) 
3

>  <N_unconstrained_atoms>  (18) 
1

>  <N_constrained_atoms>  (18) 
17

$$$$
PV_002799067427
     RDKit          3D

 27 29  0  0  0  0  0  0  0  0999 V2000
    6.0760    9.9190   25.9590 C   0  0  0  0  0  0  0  0  0  0  0  0
    5.6940   10.9660   26.9190 C   0  0  0  0  0  0  0  0  0  0  0  0
    6.5290   12.0730   27.0140 C   0  0  0  0  0  0  0  0  0  0  0  0
    6.2540   13.1380   27.9170 N   0  0  0  0  0  0  0  0  0  0  0  0
    7.0620   14.2340   28.2000 C   0  0  0  0  0  0  0  0  0  0  0  0
    6.3620   14.9690   29.1310 C   0  0  0  0  0  0  0  0  0  0  0  0
    5.1650   14.3240   29.3930 C   0  0  0  0  0  0  0  0  0  0  0  0
    5.0850   13.1720   28.6370 N   0  0  0  0  0  0  0  0  0  0  0  0
    7.6700   12.1260   26.1950 C   0  0  0  0  0  0  0  0  0  0  0  0
    8.0050   11.1320   25.3030 C   0  0  0  0  0  0  0  0  0  0  0  0
    9.1400   11.2720   24.5440 C   0  0  0  0  0  0  0  0  0  0  0  0
   10.0330   10.1070   24.2220 C   0  0  0  0  0  0  0  0  0  0  0  0
   11.1350   10.2830   23.4990 N   0  0  0  0  0  0  0  0  0  0  0  0
   11.3730   11.5570   23.0910 C   0  0  0  0  0  0  0  0  0  0  0  0
   10.5430   12.6340   23.3790 C   0  0  0  0  0  0  0  0  0  0  0  0
    9.4220   12.5130   24.1050 N   0  0  0  0  0  0  0  0  0  0  0  0
    7.2160   10.0260   25.1800 C   0  0  0  0  0  0  0  0  0  0  0  0
    5.3850    9.0920   25.9380 H   0  0  0  0  0  0  0  0  0  0  0  0
    4.7950   10.8600   27.5210 H   0  0  0  0  0  0  0  0  0  0  0  0
    8.0240   14.3900   27.7370 H   0  0  0  0  0  0  0  0  0  0  0  0
    6.6530   15.8930   29.6060 H   0  0  0  0  0  0  0  0  0  0  0  0
    4.3510   14.5970   30.0700 H   0  0  0  0  0  0  0  0  0  0  0  0
    8.3310   12.9930   26.2630 H   0  0  0  0  0  0  0  0  0  0  0  0
    9.8360    9.0930   24.5530 H   0  0  0  0  0  0  0  0  0  0  0  0
   12.2670   11.7210   22.5070 H   0  0  0  0  0  0  0  0  0  0  0  0
   10.7690   13.6330   23.0250 H   0  0  0  0  0  0  0  0  0  0  0  0
    7.4800    9.2460   24.4800 H   0  0  0  0  0  0  0  0  0  0  0  0
  1  2  2  0
  2  3  1  0
  3  4  1  0
  4  5  1  0
  5  6  2  0
  6  7  1  0
  7  8  2  0
  3  9  2  0
  9 10  1  0
 10 11  1  0
 11 12  2  0
 12 13  1  0
 13 14  2  0
 14 15  1  0
 15 16  2  0
 10 17  2  0
 17  1  1  0
  8  4  1  0
 16 11  1  0
  1 18  1  0
  2 19  1  0
  5 20  1  0
  6 21  1  0
  7 22  1  0
  9 23  1  0
 12 24  1  0
 14 25  1  0
 15 26  1  0
 17 27  1  0
A    1
 C1 
A    2
 C2 
A    3
 C3 
A    4
 N1 
A    5
 C4 
A    6
 C5 
A    7
 C6 
A    8
 N2 
A    9
 C7 
A   10
 C8 
A   11
 C9 
A   12
 C10
A   13
 N3 
A   14
 C11
A   15
 C12
A   16
 N4 
A   17
 C13
A   18
 H1 
A   19
 H2 
A   20
 H3 
A   21
 H4 
A   22
 H5 
A   23
 H6 
A   24
 H7 
A   25
 H8 
A   26
 H9 
A   27
 H10
M  END
>  <ref_pdb>  (19) 
x0554_0A

>  <ref_mols>  (19) 
x0451_0A,x0554_0A,x0556_0A,x0566_0A,x0310_0A,x0416_0A

>  <original SMILES>  (19) 
c1cc(-c2cnccn2)cc(-n2cccn2)c1

>  <rationale>  (19) 
info cluster #20 (rank 1); hbond:C110; hydroph_interaction:P107; 

>  <cluster_rank>  (19) 
1

>  <N_interactions>  (19) 
2

>  <N_interactions_lost>  (19) 
0

>  <∆∆G>  (19) 
-4.815234

>  <comRMSD>  (19) 
0.526436

>  <N_rotatable_bonds>  (19) 
2

>  <N_unconstrained_atoms>  (19) 
5

>  <N_constrained_atoms>  (19) 
13

$$$$
PV_002879884256
     RDKit          3D

 28 30  0  0  0  0  0  0  0  0999 V2000
    3.3270    9.1580   27.9620 C   0  0  0  0  0  0  0  0  0  0  0  0
    4.5090   10.0630   27.7070 C   0  0  0  0  0  0  0  0  0  0  0  0
    5.2160    9.8580   26.5930 C   0  0  0  0  0  0  0  0  0  0  0  0
    6.2600   10.6690   26.4000 C   0  0  0  0  0  0  0  0  0  0  0  0
    7.0150   10.5340   25.3660 N   0  0  0  0  0  0  0  0  0  0  0  0
    7.4970   11.6140   24.6070 C   0  0  0  0  0  0  0  0  0  0  0  0
    7.0550   12.7350   24.4080 O   0  0  0  0  0  0  0  0  0  0  0  0
    8.6660   11.2200   24.0800 C   0  0  0  0  0  0  0  0  0  0  0  0
    9.0810    9.8860   23.7780 C   0  0  0  0  0  0  0  0  0  0  0  0
   10.6390    9.7310   23.1400 S   0  0  0  0  0  0  0  0  0  0  0  0
   10.8090   11.4760   23.2520 C   0  0  0  0  0  0  0  0  0  0  0  0
   11.9620   12.3000   22.8850 C   0  0  0  0  0  0  0  0  0  0  0  0
   11.8430   13.7340   23.0690 C   0  0  0  0  0  0  0  0  0  0  0  0
   10.6430   14.3200   23.5930 N   0  0  0  0  0  0  0  0  0  0  0  0
    9.6540   13.5190   23.9060 C   0  0  0  0  0  0  0  0  0  0  0  0
    9.6700   12.1370   23.7660 C   0  0  0  0  0  0  0  0  0  0  0  0
    6.3550   11.5790   27.4390 C   0  0  0  0  0  0  0  0  0  0  0  0
    5.1270   11.3410   28.6200 S   0  0  0  0  0  0  0  0  0  0  0  0
    2.4000    9.7350   28.0160 H   0  0  0  0  0  0  0  0  0  0  0  0
    3.4400    8.6300   28.9140 H   0  0  0  0  0  0  0  0  0  0  0  0
    3.2210    8.4460   27.1370 H   0  0  0  0  0  0  0  0  0  0  0  0
    4.9940    9.1020   25.8760 H   0  0  0  0  0  0  0  0  0  0  0  0
    6.8850    9.6680   24.8490 H   0  0  0  0  0  0  0  0  0  0  0  0
    8.3830    9.0780   23.9790 H   0  0  0  0  0  0  0  0  0  0  0  0
   12.8660   11.8820   22.4890 H   0  0  0  0  0  0  0  0  0  0  0  0
   12.6090   14.4580   22.8400 H   0  0  0  0  0  0  0  0  0  0  0  0
    8.7830   14.0390   24.3000 H   0  0  0  0  0  0  0  0  0  0  0  0
    7.0840   12.3720   27.5800 H   0  0  0  0  0  0  0  0  0  0  0  0
  1  2  1  0
  2  3  2  0
  3  4  1  0
  4  5  1  0
  5  6  1  0
  6  7  2  0
  6  8  1  0
  8  9  2  0
  9 10  1  0
 10 11  1  0
 11 12  2  0
 12 13  1  0
 13 14  2  0
 14 15  1  0
 15 16  2  0
  4 17  2  0
 17 18  1  0
 18  2  1  0
 16  8  1  0
 16 11  1  0
  1 19  1  0
  1 20  1  0
  1 21  1  0
  3 22  1  0
  5 23  1  0
  9 24  1  0
 12 25  1  0
 13 26  1  0
 15 27  1  0
 17 28  1  0
A    1
 C1 
A    2
 C2 
A    3
 C3 
A    4
 C4 
A    5
 N1 
A    6
 C5 
A    7
 O1 
A    8
 C6 
A    9
 C7 
A   10
 S1 
A   11
 C8 
A   12
 C9 
A   13
 C10
A   14
 N2 
A   15
 C11
A   16
 C12
A   17
 C13
A   18
 S2 
A   19
 H1 
A   20
 H2 
A   21
 H3 
A   22
 H4 
A   23
 H5 
A   24
 H6 
A   25
 H7 
A   26
 H8 
A   27
 H9 
A   28
 H10
M  END
>  <ref_pdb>  (20) 
x0554_0A

>  <ref_mols>  (20) 
x0451_0A,x0554_0A,x0556_0A,x0566_0A,x0310_0A,x0416_0A

>  <original SMILES>  (20) 
Cc1cc(NC(=O)c2csc3ccncc23)cs1

>  <rationale>  (20) 
info cluster #12 (rank 1); hbond:G127+S105; 

>  <cluster_rank>  (20) 
1

>  <N_interactions>  (20) 
2

>  <N_interactions_lost>  (20) 
0

>  <∆∆G>  (20) 
-6.46493

>  <comRMSD>  (20) 
0.966497

>  <N_rotatable_bonds>  (20) 
3

>  <N_unconstrained_atoms>  (20) 
0

>  <N_constrained_atoms>  (20) 
18

$$$$
Z4498864894
     RDKit          3D

 31 33  0  0  0  0  0  0  0  0999 V2000
    9.3420    8.2130   22.9200 C   0  0  0  0  0  0  0  0  0  0  0  0
    9.9910    8.9190   23.9480 O   0  0  0  0  0  0  0  0  0  0  0  0
    9.4360   10.1280   24.2550 C   0  0  0  0  0  0  0  0  0  0  0  0
    8.2910   10.2670   24.9460 C   0  0  0  0  0  0  0  0  0  0  0  0
    7.8510   11.5510   25.1860 C   0  0  0  0  0  0  0  0  0  0  0  0
    6.7150   11.8870   25.8960 C   0  0  0  0  0  0  0  0  0  0  0  0
    6.1990   13.1790   25.8870 C   0  0  0  0  0  0  0  0  0  0  0  0
    5.0520   13.5420   26.6070 C   0  0  0  0  0  0  0  0  0  0  0  0
    4.4140   12.4120   27.4030 C   0  0  0  0  0  0  0  0  0  0  0  0
    5.0150   11.0300   27.3780 C   0  0  0  0  0  0  0  0  0  0  0  0
    6.1400   10.8360   26.6220 C   0  0  0  0  0  0  0  0  0  0  0  0
    8.5650   12.7350   24.7160 N   0  0  0  0  0  0  0  0  0  0  0  0
    9.6770   12.5410   24.0570 C   0  0  0  0  0  0  0  0  0  0  0  0
   10.3990   13.6900   23.6060 C   0  0  0  0  0  0  0  0  0  0  0  0
   11.5770   13.4770   22.9410 C   0  0  0  0  0  0  0  0  0  0  0  0
   12.0280   12.2000   22.7200 C   0  0  0  0  0  0  0  0  0  0  0  0
   11.2840   11.1000   23.1590 C   0  0  0  0  0  0  0  0  0  0  0  0
   10.1340   11.2530   23.8190 C   0  0  0  0  0  0  0  0  0  0  0  0
    8.2750    8.4120   22.9190 H   0  0  0  0  0  0  0  0  0  0  0  0
    9.4900    7.1440   23.0690 H   0  0  0  0  0  0  0  0  0  0  0  0
    9.7370    8.5080   21.9520 H   0  0  0  0  0  0  0  0  0  0  0  0
    7.6690    9.4920   25.3480 H   0  0  0  0  0  0  0  0  0  0  0  0
    6.7140   13.9390   25.2890 H   0  0  0  0  0  0  0  0  0  0  0  0
    4.6500   14.5520   26.5960 H   0  0  0  0  0  0  0  0  0  0  0  0
    3.5180   12.6020   27.9910 H   0  0  0  0  0  0  0  0  0  0  0  0
    4.5890   10.1950   27.9320 H   0  0  0  0  0  0  0  0  0  0  0  0
    6.5900    9.8490   26.5880 H   0  0  0  0  0  0  0  0  0  0  0  0
   10.0290   14.6960   23.7920 H   0  0  0  0  0  0  0  0  0  0  0  0
   12.1610   14.3240   22.5870 H   0  0  0  0  0  0  0  0  0  0  0  0
   12.9630   12.0590   22.1940 H   0  0  0  0  0  0  0  0  0  0  0  0
   11.5940   10.0870   22.9980 H   0  0  0  0  0  0  0  0  0  0  0  0
  1  2  1  0
  2  3  1  0
  3  4  2  0
  4  5  1  0
  5  6  1  0
  6  7  2  0
  7  8  1  0
  8  9  2  0
  9 10  1  0
 10 11  2  0
  5 12  2  0
 12 13  1  0
 13 14  2  0
 14 15  1  0
 15 16  2  0
 16 17  1  0
 17 18  2  0
 18  3  1  0
 11  6  1  0
 18 13  1  0
  1 19  1  0
  1 20  1  0
  1 21  1  0
  4 22  1  0
  7 23  1  0
  8 24  1  0
  9 25  1  0
 10 26  1  0
 11 27  1  0
 14 28  1  0
 15 29  1  0
 16 30  1  0
 17 31  1  0
A    1
 C1 
A    2
 O1 
A    3
 C2 
A    4
 C3 
A    5
 C4 
A    6
 C5 
A    7
 C6 
A    8
 C7 
A    9
 C8 
A   10
 C9 
A   11
 C10
A   12
 N1 
A   13
 C11
A   14
 C12
A   15
 C13
A   16
 C14
A   17
 C15
A   18
 C16
A   19
 H1 
A   20
 H2 
A   21
 H3 
A   22
 H4 
A   23
 H5 
A   24
 H6 
A   25
 H7 
A   26
 H8 
A   27
 H9 
A   28
 H10
A   29
 H11
A   30
 H12
A   31
 H13
M  END
>  <ref_pdb>  (21) 
x0554_0A

>  <ref_mols>  (21) 
x0451_0A,x0554_0A,x0556_0A,x0566_0A,x0310_0A,x0416_0A

>  <original SMILES>  (21) 
COc1cc(-c2ccccc2)nc2ccccc12

>  <rationale>  (21) 
info cluster #17 (rank 1); hbond:C110+D109; 

>  <cluster_rank>  (21) 
1

>  <N_interactions>  (21) 
2

>  <N_interactions_lost>  (21) 
0

>  <∆∆G>  (21) 
-6.053207

>  <comRMSD>  (21) 
0.727522

>  <N_rotatable_bonds>  (21) 
3

>  <N_unconstrained_atoms>  (21) 
0

>  <N_constrained_atoms>  (21) 
19

$$$$
Z4512265544
     RDKit          3D

 29 30  0  0  0  0  0  0  0  0999 V2000
    8.6370    8.9090   24.1460 C   0  0  0  0  0  0  0  0  0  0  0  0
    8.4360   10.2310   24.5750 C   0  0  0  0  0  0  0  0  0  0  0  0
    7.4320   10.7240   25.3870 C   0  0  0  0  0  0  0  0  0  0  0  0
    6.3980   10.0230   25.9650 C   0  0  0  0  0  0  0  0  0  0  0  0
    7.5970   12.1790   25.5950 C   0  0  0  0  0  0  0  0  0  0  0  0
    8.5890   12.4910   24.7200 N   0  0  0  0  0  0  0  0  0  0  0  0
    9.1400   13.7380   24.5820 C   0  0  0  0  0  0  0  0  0  0  0  0
    8.8740   14.6630   25.3510 O   0  0  0  0  0  0  0  0  0  0  0  0
   10.0630   13.9500   23.5000 C   0  0  0  0  0  0  0  0  0  0  0  0
   11.3850   14.0170   23.9070 C   0  0  0  0  0  0  0  0  0  0  0  0
   12.4060   14.2340   22.9160 C   0  0  0  0  0  0  0  0  0  0  0  0
   12.0230   14.3670   21.5930 C   0  0  0  0  0  0  0  0  0  0  0  0
   10.7010   14.2800   21.3010 C   0  0  0  0  0  0  0  0  0  0  0  0
    9.7260   14.0770   22.2240 N   0  0  0  0  0  0  0  0  0  0  0  0
    9.3320   11.3450   24.2050 C   0  0  0  0  0  0  0  0  0  0  0  0
    8.3260    8.2000   24.9140 H   0  0  0  0  0  0  0  0  0  0  0  0
    8.1060    8.7210   23.2140 H   0  0  0  0  0  0  0  0  0  0  0  0
    9.7030    8.7410   23.9590 H   0  0  0  0  0  0  0  0  0  0  0  0
    5.6440    9.6190   25.3160 H   0  0  0  0  0  0  0  0  0  0  0  0
    5.8360   10.5190   26.7490 H   0  0  0  0  0  0  0  0  0  0  0  0
    6.8550    9.1810   26.4490 H   0  0  0  0  0  0  0  0  0  0  0  0
    6.6840   12.7200   25.3330 H   0  0  0  0  0  0  0  0  0  0  0  0
    7.9200   12.3960   26.6170 H   0  0  0  0  0  0  0  0  0  0  0  0
   11.6500   13.9110   24.9540 H   0  0  0  0  0  0  0  0  0  0  0  0
   13.4340   14.2860   23.2250 H   0  0  0  0  0  0  0  0  0  0  0  0
   12.7440   14.5340   20.8080 H   0  0  0  0  0  0  0  0  0  0  0  0
   10.3540   14.3740   20.2780 H   0  0  0  0  0  0  0  0  0  0  0  0
    9.4690   11.4320   23.1280 H   0  0  0  0  0  0  0  0  0  0  0  0
   10.3040   11.2790   24.7060 H   0  0  0  0  0  0  0  0  0  0  0  0
  1  2  1  0
  2  3  2  0
  3  4  1  0
  3  5  1  0
  5  6  1  0
  6  7  1  0
  7  8  2  0
  7  9  1  0
  9 10  2  0
 10 11  1  0
 11 12  2  0
 12 13  1  0
 13 14  2  0
  6 15  1  0
 15  2  1  0
 14  9  1  0
  1 16  1  0
  1 17  1  0
  1 18  1  0
  4 19  1  0
  4 20  1  0
  4 21  1  0
  5 22  1  0
  5 23  1  0
 10 24  1  0
 11 25  1  0
 12 26  1  0
 13 27  1  0
 15 28  1  0
 15 29  1  0
A    1
 C1 
A    2
 C2 
A    3
 C3 
A    4
 C4 
A    5
 C5 
A    6
 N1 
A    7
 C6 
A    8
 O1 
A    9
 C7 
A   10
 C8 
A   11
 C9 
A   12
 C10
A   13
 C11
A   14
 N2 
A   15
 C12
A   16
 H1 
A   17
 H2 
A   18
 H3 
A   19
 H4 
A   20
 H5 
A   21
 H6 
A   22
 H7 
A   23
 H8 
A   24
 H9 
A   25
 H10
A   26
 H11
A   27
 H12
A   28
 H13
A   29
 H14
M  END
>  <ref_pdb>  (22) 
x0554_0A

>  <ref_mols>  (22) 
x0451_0A,x0554_0A,x0556_0A,x0566_0A,x0310_0A,x0416_0A

>  <original SMILES>  (22) 
CC1=C(C)CN(C(=O)c2ccccn2)C1

>  <rationale>  (22) 
info cluster #11 (rank 2); hydroph_interaction:Y89; 

>  <cluster_rank>  (22) 
2

>  <N_interactions>  (22) 
1

>  <N_interactions_lost>  (22) 
0

>  <∆∆G>  (22) 
-9.332087

>  <comRMSD>  (22) 
0.630006

>  <N_rotatable_bonds>  (22) 
3

>  <N_unconstrained_atoms>  (22) 
0

>  <N_constrained_atoms>  (22) 
16

$$$$
Z3244814770
     RDKit          3D

 27 29  0  0  0  0  0  0  0  0999 V2000
    9.7100   17.8400   18.2190 C   0  0  0  0  0  0  0  0  0  0  0  0
   10.5380   16.6170   17.8970 C   0  0  0  0  0  0  0  0  0  0  0  0
   10.7100   15.6810   19.0910 C   0  0  0  0  0  0  0  0  0  0  0  0
   10.1410   15.9640   20.3390 C   0  0  0  0  0  0  0  0  0  0  0  0
   10.3320   15.0260   21.3580 C   0  0  0  0  0  0  0  0  0  0  0  0
   11.6760   14.6340   21.8110 C   0  0  0  0  0  0  0  0  0  0  0  0
   11.7950   13.6620   22.7920 N   0  0  0  0  0  0  0  0  0  0  0  0
   10.5760   13.0700   23.2930 C   0  0  0  0  0  0  0  0  0  0  0  0
   10.7880   12.0650   24.2320 C   0  0  0  0  0  0  0  0  0  0  0  0
    9.6880   11.3990   24.7760 C   0  0  0  0  0  0  0  0  0  0  0  0
    8.4050   11.7680   24.3870 C   0  0  0  0  0  0  0  0  0  0  0  0
    8.2350   12.7870   23.4570 C   0  0  0  0  0  0  0  0  0  0  0  0
    9.3320   13.4480   22.8850 C   0  0  0  0  0  0  0  0  0  0  0  0
    9.2020   14.4350   21.9270 C   0  0  0  0  0  0  0  0  0  0  0  0
    9.3930   17.1330   20.5240 C   0  0  0  0  0  0  0  0  0  0  0  0
    9.1790   18.0560   19.4850 C   0  0  0  0  0  0  0  0  0  0  0  0
    9.5670   18.5290   17.3820 H   0  0  0  0  0  0  0  0  0  0  0  0
   10.9920   16.3590   16.9500 H   0  0  0  0  0  0  0  0  0  0  0  0
   11.2950   14.7780   18.9210 H   0  0  0  0  0  0  0  0  0  0  0  0
   12.6010   15.0520   21.4240 H   0  0  0  0  0  0  0  0  0  0  0  0
   11.7990   11.7970   24.5330 H   0  0  0  0  0  0  0  0  0  0  0  0
    9.8280   10.6040   25.4990 H   0  0  0  0  0  0  0  0  0  0  0  0
    7.5490   11.2530   24.8170 H   0  0  0  0  0  0  0  0  0  0  0  0
    7.1870   13.0020   23.2160 H   0  0  0  0  0  0  0  0  0  0  0  0
    8.2550   14.7880   21.5530 H   0  0  0  0  0  0  0  0  0  0  0  0
    8.9520   17.3460   21.4850 H   0  0  0  0  0  0  0  0  0  0  0  0
    8.5880   18.9500   19.6760 H   0  0  0  0  0  0  0  0  0  0  0  0
  1  2  2  0
  2  3  1  0
  3  4  2  0
  4  5  1  0
  5  6  2  0
  6  7  1  0
  7  8  2  0
  8  9  1  0
  9 10  2  0
 10 11  1  0
 11 12  2  0
 12 13  1  0
 13 14  2  0
  4 15  1  0
 15 16  2  0
 16  1  1  0
 14  5  1  0
 13  8  1  0
  1 17  1  0
  2 18  1  0
  3 19  1  0
  6 20  1  0
  9 21  1  0
 10 22  1  0
 11 23  1  0
 12 24  1  0
 14 25  1  0
 15 26  1  0
 16 27  1  0
A    1
 C1 
A    2
 C2 
A    3
 C3 
A    4
 C4 
A    5
 C5 
A    6
 C6 
A    7
 N1 
A    8
 C7 
A    9
 C8 
A   10
 C9 
A   11
 C10
A   12
 C11
A   13
 C12
A   14
 C13
A   15
 C14
A   16
 C15
A   17
 H1 
A   18
 H2 
A   19
 H3 
A   20
 H4 
A   21
 H5 
A   22
 H6 
A   23
 H7 
A   24
 H8 
A   25
 H9 
A   26
 H10
A   27
 H11
M  END
>  <ref_pdb>  (23) 
x0554_0A

>  <ref_mols>  (23) 
x0451_0A,x0554_0A,x0556_0A,x0566_0A,x0310_0A,x0416_0A

>  <original SMILES>  (23) 
c1ccc(-c2cnc3ccccc3c2)cc1

>  <rationale>  (23) 
info cluster #13 (rank 2); hydroph_interaction:Y90+V84; 

>  <cluster_rank>  (23) 
2

>  <N_interactions>  (23) 
3

>  <N_interactions_lost>  (23) 
0

>  <∆∆G>  (23) 
-7.166076

>  <comRMSD>  (23) 
0.87398

>  <N_rotatable_bonds>  (23) 
1

>  <N_unconstrained_atoms>  (23) 
6

>  <N_constrained_atoms>  (23) 
11

$$$$
Z2204868569
     RDKit          3D

 27 29  0  0  0  0  0  0  0  0999 V2000
   12.6820   15.2140   22.1820 C   0  0  0  0  0  0  0  0  0  0  0  0
   11.4500   14.4690   22.4680 C   0  0  0  0  0  0  0  0  0  0  0  0
   11.4540   13.0770   22.9560 C   0  0  0  0  0  0  0  0  0  0  0  0
   10.1680   12.6190   23.1060 C   0  0  0  0  0  0  0  0  0  0  0  0
    9.7410   11.3580   23.4970 C   0  0  0  0  0  0  0  0  0  0  0  0
   10.3210   10.1920   23.0070 C   0  0  0  0  0  0  0  0  0  0  0  0
    9.8270    8.8910   23.4050 C   0  0  0  0  0  0  0  0  0  0  0  0
    8.7660    8.8480   24.2840 C   0  0  0  0  0  0  0  0  0  0  0  0
    8.1920   10.0390   24.7710 C   0  0  0  0  0  0  0  0  0  0  0  0
    7.0760    9.9840   25.6890 C   0  0  0  0  0  0  0  0  0  0  0  0
    6.5340   11.1550   26.1530 C   0  0  0  0  0  0  0  0  0  0  0  0
    6.9790   12.3730   25.8060 N   0  0  0  0  0  0  0  0  0  0  0  0
    8.0200   12.4090   24.9420 C   0  0  0  0  0  0  0  0  0  0  0  0
    8.6680   11.2980   24.3920 C   0  0  0  0  0  0  0  0  0  0  0  0
    9.2420   13.6000   22.7780 C   0  0  0  0  0  0  0  0  0  0  0  0
    9.9090   15.0920   22.2600 S   0  0  0  0  0  0  0  0  0  0  0  0
   13.4720   14.9200   22.8590 H   0  0  0  0  0  0  0  0  0  0  0  0
   13.0120   15.0470   21.1560 H   0  0  0  0  0  0  0  0  0  0  0  0
   12.4680   16.2660   22.2810 H   0  0  0  0  0  0  0  0  0  0  0  0
   12.3480   12.4900   23.1500 H   0  0  0  0  0  0  0  0  0  0  0  0
   11.1450   10.2460   22.3170 H   0  0  0  0  0  0  0  0  0  0  0  0
   10.2190    7.9460   23.0700 H   0  0  0  0  0  0  0  0  0  0  0  0
    8.4070    7.8720   24.5750 H   0  0  0  0  0  0  0  0  0  0  0  0
    6.6510    9.0590   26.0250 H   0  0  0  0  0  0  0  0  0  0  0  0
    5.6900   11.1390   26.8480 H   0  0  0  0  0  0  0  0  0  0  0  0
    8.3340   13.4190   24.6940 H   0  0  0  0  0  0  0  0  0  0  0  0
    8.1640   13.5050   22.8100 H   0  0  0  0  0  0  0  0  0  0  0  0
  1  2  1  0
  2  3  2  0
  3  4  1  0
  4  5  1  0
  5  6  2  0
  6  7  1  0
  7  8  2  0
  8  9  1  0
  9 10  2  0
 10 11  1  0
 11 12  2  0
 12 13  1  0
 13 14  2  0
  4 15  2  0
 15 16  1  0
 16  2  1  0
 14  5  1  0
 14  9  1  0
  1 17  1  0
  1 18  1  0
  1 19  1  0
  3 20  1  0
  6 21  1  0
  7 22  1  0
  8 23  1  0
 10 24  1  0
 11 25  1  0
 13 26  1  0
 15 27  1  0
A    1
 C1 
A    2
 C2 
A    3
 C3 
A    4
 C4 
A    5
 C5 
A    6
 C6 
A    7
 C7 
A    8
 C8 
A    9
 C9 
A   10
 C10
A   11
 C11
A   12
 N1 
A   13
 C12
A   14
 C13
A   15
 C14
A   16
 S1 
A   17
 H1 
A   18
 H2 
A   19
 H3 
A   20
 H4 
A   21
 H5 
A   22
 H6 
A   23
 H7 
A   24
 H8 
A   25
 H9 
A   26
 H10
A   27
 H11
M  END
>  <ref_pdb>  (24) 
x0554_0A

>  <ref_mols>  (24) 
x0451_0A,x0554_0A,x0556_0A,x0566_0A,x0310_0A,x0416_0A

>  <original SMILES>  (24) 
Cc1cc(-c2cccc3ccncc23)cs1

>  <rationale>  (24) 
info cluster #14 (rank 2); hydroph_interaction:Y89+D109+V124; 

>  <cluster_rank>  (24) 
2

>  <N_interactions>  (24) 
3

>  <N_interactions_lost>  (24) 
0

>  <∆∆G>  (24) 
-7.997915

>  <comRMSD>  (24) 
0.881954

>  <N_rotatable_bonds>  (24) 
2

>  <N_unconstrained_atoms>  (24) 
0

>  <N_constrained_atoms>  (24) 
16

$$$$
PV_003167424871
     RDKit          3D

 25 27  0  0  0  0  0  0  0  0999 V2000
   11.1830   16.0370   23.4840 F   0  0  0  0  0  0  0  0  0  0  0  0
   11.0000   14.7870   23.1620 C   0  0  0  0  0  0  0  0  0  0  0  0
   11.4160   14.2900   22.0230 N   0  0  0  0  0  0  0  0  0  0  0  0
   11.0000   13.0340   22.1330 N   0  0  0  0  0  0  0  0  0  0  0  0
   10.3470   12.7220   23.2810 C   0  0  0  0  0  0  0  0  0  0  0  0
    9.7860   11.3650   23.5830 C   0  0  0  0  0  0  0  0  0  0  0  0
   10.3460   10.2190   23.0260 C   0  0  0  0  0  0  0  0  0  0  0  0
    9.8140    8.9790   23.3130 C   0  0  0  0  0  0  0  0  0  0  0  0
    8.7190    8.8700   24.1590 C   0  0  0  0  0  0  0  0  0  0  0  0
    8.1170    9.9990   24.7430 C   0  0  0  0  0  0  0  0  0  0  0  0
    7.0250    9.9550   25.5910 C   0  0  0  0  0  0  0  0  0  0  0  0
    6.4730   11.0990   26.1380 C   0  0  0  0  0  0  0  0  0  0  0  0
    7.0130   12.3230   25.8390 C   0  0  0  0  0  0  0  0  0  0  0  0
    8.1020   12.3920   24.9950 C   0  0  0  0  0  0  0  0  0  0  0  0
    8.6700   11.2730   24.4410 C   0  0  0  0  0  0  0  0  0  0  0  0
   10.3440   13.8840   23.9920 C   0  0  0  0  0  0  0  0  0  0  0  0
   11.1870   12.4140   21.3750 H   0  0  0  0  0  0  0  0  0  0  0  0
   11.1960   10.2860   22.3670 H   0  0  0  0  0  0  0  0  0  0  0  0
   10.2510    8.0880   22.8830 H   0  0  0  0  0  0  0  0  0  0  0  0
    8.3370    7.8750   24.3610 H   0  0  0  0  0  0  0  0  0  0  0  0
    6.5730    9.0170   25.8510 H   0  0  0  0  0  0  0  0  0  0  0  0
    5.6150   11.0240   26.7990 H   0  0  0  0  0  0  0  0  0  0  0  0
    6.5870   13.2280   26.2610 H   0  0  0  0  0  0  0  0  0  0  0  0
    8.5010   13.3810   24.7820 H   0  0  0  0  0  0  0  0  0  0  0  0
    9.9230   14.0660   24.9660 H   0  0  0  0  0  0  0  0  0  0  0  0
  1  2  1  0
  2  3  2  0
  3  4  1  0
  4  5  1  0
  5  6  1  0
  6  7  2  0
  7  8  1  0
  8  9  2  0
  9 10  1  0
 10 11  2  0
 11 12  1  0
 12 13  2  0
 13 14  1  0
 14 15  2  0
  5 16  2  0
 16  2  1  0
 15  6  1  0
 15 10  1  0
  4 17  1  0
  7 18  1  0
  8 19  1  0
  9 20  1  0
 11 21  1  0
 12 22  1  0
 13 23  1  0
 14 24  1  0
 16 25  1  0
A    1
 F1 
A    2
 C1 
A    3
 N1 
A    4
 N2 
A    5
 C2 
A    6
 C3 
A    7
 C4 
A    8
 C5 
A    9
 C6 
A   10
 C7 
A   11
 C8 
A   12
 C9 
A   13
 C10
A   14
 C11
A   15
 C12
A   16
 C13
A   17
 H1 
A   18
 H2 
A   19
 H3 
A   20
 H4 
A   21
 H5 
A   22
 H6 
A   23
 H7 
A   24
 H8 
A   25
 H9 
M  END
>  <ref_pdb>  (25) 
x0554_0A

>  <ref_mols>  (25) 
x0451_0A,x0554_0A,x0556_0A,x0566_0A,x0310_0A,x0416_0A

>  <original SMILES>  (25) 
Fc1cc(-c2cccc3ccccc23)[nH]n1

>  <rationale>  (25) 
info cluster #2 (rank 2); hydroph_interaction:V124; 

>  <cluster_rank>  (25) 
2

>  <N_interactions>  (25) 
1

>  <N_interactions_lost>  (25) 
0

>  <∆∆G>  (25) 
-6.439692

>  <comRMSD>  (25) 
0.548294

>  <N_rotatable_bonds>  (25) 
1

>  <N_unconstrained_atoms>  (25) 
0

>  <N_constrained_atoms>  (25) 
16

$$$$
Z48951242
     RDKit          3D

 30 32  0  0  0  0  0  0  0  0999 V2000
    9.5400    8.8500   23.7750 C   0  0  0  0  0  0  0  0  0  0  0  0
    9.1330   10.2670   24.1750 C   0  0  0  0  0  0  0  0  0  0  0  0
    8.0070   10.4980   24.9370 C   0  0  0  0  0  0  0  0  0  0  0  0
    7.6610   11.7890   25.2800 C   0  0  0  0  0  0  0  0  0  0  0  0
    6.5650   12.0570   26.0520 C   0  0  0  0  0  0  0  0  0  0  0  0
    6.1130   11.1120   27.0490 C   0  0  0  0  0  0  0  0  0  0  0  0
    5.0180   11.3620   27.8560 C   0  0  0  0  0  0  0  0  0  0  0  0
    4.3330   12.5650   27.6920 C   0  0  0  0  0  0  0  0  0  0  0  0
    3.2750   12.8290   28.4640 F   0  0  0  0  0  0  0  0  0  0  0  0
    4.7310   13.5010   26.7350 C   0  0  0  0  0  0  0  0  0  0  0  0
    5.8410   13.2470   25.9230 C   0  0  0  0  0  0  0  0  0  0  0  0
    8.3620   12.8630   24.9050 N   0  0  0  0  0  0  0  0  0  0  0  0
    9.4490   12.6760   24.1840 C   0  0  0  0  0  0  0  0  0  0  0  0
   10.1440   13.8640   23.8380 C   0  0  0  0  0  0  0  0  0  0  0  0
   11.2940   13.6920   23.1050 C   0  0  0  0  0  0  0  0  0  0  0  0
   11.7250   12.4320   22.7400 C   0  0  0  0  0  0  0  0  0  0  0  0
   11.0090   11.2860   23.0840 C   0  0  0  0  0  0  0  0  0  0  0  0
    9.8680   11.3940   23.8080 C   0  0  0  0  0  0  0  0  0  0  0  0
   10.6120    8.6990   23.9360 H   0  0  0  0  0  0  0  0  0  0  0  0
    9.0200    8.1200   24.4040 H   0  0  0  0  0  0  0  0  0  0  0  0
    9.2940    8.6180   22.7340 H   0  0  0  0  0  0  0  0  0  0  0  0
    7.3880    9.6870   25.2780 H   0  0  0  0  0  0  0  0  0  0  0  0
    6.7130   10.1960   27.1010 H   0  0  0  0  0  0  0  0  0  0  0  0
    4.6940   10.6450   28.6020 H   0  0  0  0  0  0  0  0  0  0  0  0
    4.1770   14.4280   26.6280 H   0  0  0  0  0  0  0  0  0  0  0  0
    6.1440   13.9950   25.1790 H   0  0  0  0  0  0  0  0  0  0  0  0
    9.8010   14.8520   24.1330 H   0  0  0  0  0  0  0  0  0  0  0  0
   11.8800   14.5550   22.8100 H   0  0  0  0  0  0  0  0  0  0  0  0
   12.6410   12.3300   22.1650 H   0  0  0  0  0  0  0  0  0  0  0  0
   11.3650   10.3130   22.7740 H   0  0  0  0  0  0  0  0  0  0  0  0
  1  2  1  0
  2  3  2  0
  3  4  1  0
  4  5  1  0
  5  6  2  0
  6  7  1  0
  7  8  2  0
  8  9  1  0
  8 10  1  0
 10 11  2  0
  4 12  2  0
 12 13  1  0
 13 14  2  0
 14 15  1  0
 15 16  2  0
 16 17  1  0
 17 18  2  0
 18  2  1  0
 11  5  1  0
 18 13  1  0
  1 19  1  0
  1 20  1  0
  1 21  1  0
  3 22  1  0
  6 23  1  0
  7 24  1  0
 10 25  1  0
 11 26  1  0
 14 27  1  0
 15 28  1  0
 16 29  1  0
 17 30  1  0
A    1
 C1 
A    2
 C2 
A    3
 C3 
A    4
 C4 
A    5
 C5 
A    6
 C6 
A    7
 C7 
A    8
 C8 
A    9
 F1 
A   10
 C9 
A   11
 C10
A   12
 N1 
A   13
 C11
A   14
 C12
A   15
 C13
A   16
 C14
A   17
 C15
A   18
 C16
A   19
 H1 
A   20
 H2 
A   21
 H3 
A   22
 H4 
A   23
 H5 
A   24
 H6 
A   25
 H7 
A   26
 H8 
A   27
 H9 
A   28
 H10
A   29
 H11
A   30
 H12
M  END
>  <ref_pdb>  (26) 
x0554_0A

>  <ref_mols>  (26) 
x0451_0A,x0554_0A,x0556_0A,x0566_0A,x0310_0A,x0416_0A

>  <original SMILES>  (26) 
Cc1cc(-c2ccc(F)cc2)nc2ccccc12

>  <rationale>  (26) 
info cluster #0 (rank 2); hydroph_interaction:D109; 

>  <cluster_rank>  (26) 
2

>  <N_interactions>  (26) 
1

>  <N_interactions_lost>  (26) 
0

>  <∆∆G>  (26) 
-6.950168

>  <comRMSD>  (26) 
0.617083

>  <N_rotatable_bonds>  (26) 
2

>  <N_unconstrained_atoms>  (26) 
0

>  <N_constrained_atoms>  (26) 
19

$$$$
PV_002170466074
     RDKit          3D

 30 32  0  0  0  0  0  0  0  0999 V2000
   12.0530   12.0050   25.2700 O   0  0  0  0  0  0  0  0  0  0  0  0
   11.1660   12.2330   24.4670 C   0  0  0  0  0  0  0  0  0  0  0  0
   10.1530   11.1570   24.2550 C   0  0  0  0  0  0  0  0  0  0  0  0
   10.5970    9.9990   23.3990 C   0  0  0  0  0  0  0  0  0  0  0  0
    9.6830    8.9900   23.2150 C   0  0  0  0  0  0  0  0  0  0  0  0
    8.4410    9.0660   23.7990 C   0  0  0  0  0  0  0  0  0  0  0  0
    8.0280   10.1660   24.6070 C   0  0  0  0  0  0  0  0  0  0  0  0
    6.7620   10.2390   25.2100 C   0  0  0  0  0  0  0  0  0  0  0  0
    6.4010   11.3460   25.9790 C   0  0  0  0  0  0  0  0  0  0  0  0
    7.2750   12.3900   26.1640 C   0  0  0  0  0  0  0  0  0  0  0  0
    8.5220   12.3320   25.5940 C   0  0  0  0  0  0  0  0  0  0  0  0
    8.9030   11.2350   24.8260 C   0  0  0  0  0  0  0  0  0  0  0  0
   11.0340   13.4150   23.7890 N   0  0  0  0  0  0  0  0  0  0  0  0
   11.9850   14.4950   23.8290 C   0  0  0  0  0  0  0  0  0  0  0  0
   11.6440   15.2940   22.6130 C   0  0  0  0  0  0  0  0  0  0  0  0
   10.6910   14.6690   21.8920 C   0  0  0  0  0  0  0  0  0  0  0  0
   10.3150   13.4060   22.5680 C   0  0  0  0  0  0  0  0  0  0  0  0
   11.5620    9.9630   22.9660 H   0  0  0  0  0  0  0  0  0  0  0  0
    9.9420    8.1280   22.6080 H   0  0  0  0  0  0  0  0  0  0  0  0
    7.8200    8.2380   23.5930 H   0  0  0  0  0  0  0  0  0  0  0  0
    6.0300    9.4610   25.1020 H   0  0  0  0  0  0  0  0  0  0  0  0
    5.4100   11.3740   26.4320 H   0  0  0  0  0  0  0  0  0  0  0  0
    6.9840   13.2480   26.7580 H   0  0  0  0  0  0  0  0  0  0  0  0
    9.2040   13.1650   25.7590 H   0  0  0  0  0  0  0  0  0  0  0  0
   13.0030   14.0940   23.7820 H   0  0  0  0  0  0  0  0  0  0  0  0
   11.8380   15.0650   24.7390 H   0  0  0  0  0  0  0  0  0  0  0  0
   12.0990   16.2380   22.3510 H   0  0  0  0  0  0  0  0  0  0  0  0
   10.2560   15.0190   20.9660 H   0  0  0  0  0  0  0  0  0  0  0  0
   10.6850   12.5480   22.0540 H   0  0  0  0  0  0  0  0  0  0  0  0
    9.2370   13.3200   22.7620 H   0  0  0  0  0  0  0  0  0  0  0  0
  1  2  2  0
  2  3  1  0
  3  4  2  0
  4  5  1  0
  5  6  2  0
  6  7  1  0
  7  8  2  0
  8  9  1  0
  9 10  2  0
 10 11  1  0
 11 12  2  0
  2 13  1  0
 13 14  1  0
 14 15  1  0
 15 16  2  0
 16 17  1  0
 12  3  1  0
 12  7  1  0
 17 13  1  0
  4 18  1  0
  5 19  1  0
  6 20  1  0
  8 21  1  0
  9 22  1  0
 10 23  1  0
 11 24  1  0
 14 25  1  0
 14 26  1  0
 15 27  1  0
 16 28  1  0
 17 29  1  0
 17 30  1  0
A    1
 O1 
A    2
 C1 
A    3
 C2 
A    4
 C3 
A    5
 C4 
A    6
 C5 
A    7
 C6 
A    8
 C7 
A    9
 C8 
A   10
 C9 
A   11
 C10
A   12
 C11
A   13
 N1 
A   14
 C12
A   15
 C13
A   16
 C14
A   17
 C15
A   18
 H1 
A   19
 H2 
A   20
 H3 
A   21
 H4 
A   22
 H5 
A   23
 H6 
A   24
 H7 
A   25
 H8 
A   26
 H9 
A   27
 H10
A   28
 H11
A   29
 H12
A   30
 H13
M  END
>  <ref_pdb>  (27) 
x0554_0A

>  <ref_mols>  (27) 
x0451_0A,x0554_0A,x0556_0A,x0566_0A,x0310_0A,x0416_0A

>  <original SMILES>  (27) 
O=C(c1cccc2ccccc12)N1CC=CC1

>  <rationale>  (27) 
info cluster #9 (rank 2); hbond:G108; hydroph_interaction:Y89+V124; 

>  <cluster_rank>  (27) 
2

>  <N_interactions>  (27) 
3

>  <N_interactions_lost>  (27) 
0

>  <∆∆G>  (27) 
-5.870385

>  <comRMSD>  (27) 
0.752371

>  <N_rotatable_bonds>  (27) 
1

>  <N_unconstrained_atoms>  (27) 
0

>  <N_constrained_atoms>  (27) 
17

$$$$
PV_002478950388
     RDKit          3D

 28 29  0  0  0  0  0  0  0  0999 V2000
    8.5050    7.9350   23.6440 C   0  0  0  0  0  0  0  0  0  0  0  0
    8.5460    9.3430   24.1680 C   0  0  0  0  0  0  0  0  0  0  0  0
    7.5410   10.0010   25.0620 C   0  0  0  0  0  0  0  0  0  0  0  0
    7.7480   11.3150   25.4540 C   0  0  0  0  0  0  0  0  0  0  0  0
    8.8880   11.9820   25.0030 C   0  0  0  0  0  0  0  0  0  0  0  0
    9.1540   13.3010   25.3620 C   0  0  0  0  0  0  0  0  0  0  0  0
    9.5670   13.9650   24.3150 N   0  0  0  0  0  0  0  0  0  0  0  0
   10.9090   14.0440   24.0960 C   0  0  0  0  0  0  0  0  0  0  0  0
   11.2660   14.3490   22.8140 C   0  0  0  0  0  0  0  0  0  0  0  0
   12.6020   14.4720   22.3370 C   0  0  0  0  0  0  0  0  0  0  0  0
    9.8700   14.5540   21.8410 S   0  0  0  0  0  0  0  0  0  0  0  0
    8.8980   13.8880   23.0940 C   0  0  0  0  0  0  0  0  0  0  0  0
    7.8110   13.4370   22.8490 O   0  0  0  0  0  0  0  0  0  0  0  0
    9.8010   11.3320   24.1670 C   0  0  0  0  0  0  0  0  0  0  0  0
    9.6350   10.0370   23.7550 C   0  0  0  0  0  0  0  0  0  0  0  0
    9.4710    7.7270   23.1750 H   0  0  0  0  0  0  0  0  0  0  0  0
    7.7520    7.7990   22.8730 H   0  0  0  0  0  0  0  0  0  0  0  0
    8.3930    7.2210   24.4590 H   0  0  0  0  0  0  0  0  0  0  0  0
    6.6600    9.4730   25.4080 H   0  0  0  0  0  0  0  0  0  0  0  0
    7.0250   11.8010   26.1010 H   0  0  0  0  0  0  0  0  0  0  0  0
    8.3380   13.8310   25.8420 H   0  0  0  0  0  0  0  0  0  0  0  0
    9.9590   13.2830   26.1070 H   0  0  0  0  0  0  0  0  0  0  0  0
   11.6430   13.8730   24.8750 H   0  0  0  0  0  0  0  0  0  0  0  0
   12.8170   15.4760   21.9880 H   0  0  0  0  0  0  0  0  0  0  0  0
   12.7230   13.7770   21.5070 H   0  0  0  0  0  0  0  0  0  0  0  0
   13.3050   14.2070   23.1290 H   0  0  0  0  0  0  0  0  0  0  0  0
   10.6570   11.9130   23.8590 H   0  0  0  0  0  0  0  0  0  0  0  0
   10.2800    9.4550   23.1140 H   0  0  0  0  0  0  0  0  0  0  0  0
  1  2  1  0
  2  3  2  0
  3  4  1  0
  4  5  2  0
  5  6  1  0
  6  7  1  0
  7  8  1  0
  8  9  2  0
  9 10  1  0
  9 11  1  0
 11 12  1  0
 12 13  2  0
  5 14  1  0
 14 15  2  0
 15  2  1  0
 12  7  1  0
  1 16  1  0
  1 17  1  0
  1 18  1  0
  3 19  1  0
  4 20  1  0
  6 21  1  0
  6 22  1  0
  8 23  1  0
 10 24  1  0
 10 25  1  0
 10 26  1  0
 14 27  1  0
 15 28  1  0
A    1
 C1 
A    2
 C2 
A    3
 C3 
A    4
 C4 
A    5
 C5 
A    6
 C6 
A    7
 N1 
A    8
 C7 
A    9
 C8 
A   10
 C9 
A   11
 S1 
A   12
 C10
A   13
 O1 
A   14
 C11
A   15
 C12
A   16
 H1 
A   17
 H2 
A   18
 H3 
A   19
 H4 
A   20
 H5 
A   21
 H6 
A   22
 H7 
A   23
 H8 
A   24
 H9 
A   25
 H10
A   26
 H11
A   27
 H12
A   28
 H13
M  END
>  <ref_pdb>  (28) 
x0554_0A

>  <ref_mols>  (28) 
x0451_0A,x0554_0A,x0556_0A,x0566_0A,x0310_0A,x0416_0A

>  <original SMILES>  (28) 
Cc1ccc(Cn2cc(C)sc2=O)cc1

>  <rationale>  (28) 
info cluster #10 (rank 2); hbond:G127; hydroph_interaction:Y89+D109; 

>  <cluster_rank>  (28) 
2

>  <N_interactions>  (28) 
3

>  <N_interactions_lost>  (28) 
0

>  <∆∆G>  (28) 
-9.825596

>  <comRMSD>  (28) 
0.737639

>  <N_rotatable_bonds>  (28) 
4

>  <N_unconstrained_atoms>  (28) 
0

>  <N_constrained_atoms>  (28) 
15

$$$$
PV_003064497225
     RDKit          3D

 27 29  0  0  0  0  0  0  0  0999 V2000
   12.6060   15.2330   22.1790 C   0  0  0  0  0  0  0  0  0  0  0  0
   11.5120   14.3490   22.4910 C   0  0  0  0  0  0  0  0  0  0  0  0
   11.5220   13.0640   22.9670 C   0  0  0  0  0  0  0  0  0  0  0  0
   10.2330   12.6130   23.0850 C   0  0  0  0  0  0  0  0  0  0  0  0
    9.7480   11.3720   23.4890 C   0  0  0  0  0  0  0  0  0  0  0  0
   10.2740   10.1790   23.0020 C   0  0  0  0  0  0  0  0  0  0  0  0
    9.8200    8.9640   23.3350 N   0  0  0  0  0  0  0  0  0  0  0  0
    8.7930    8.9230   24.2030 C   0  0  0  0  0  0  0  0  0  0  0  0
    8.1880   10.0620   24.7550 C   0  0  0  0  0  0  0  0  0  0  0  0
    7.1660    9.9620   25.6100 C   0  0  0  0  0  0  0  0  0  0  0  0
    6.5440   11.1410   26.1740 C   0  0  0  0  0  0  0  0  0  0  0  0
    6.9950   12.3540   25.8380 C   0  0  0  0  0  0  0  0  0  0  0  0
    8.0750   12.4610   24.9340 C   0  0  0  0  0  0  0  0  0  0  0  0
    8.6790   11.3290   24.3880 C   0  0  0  0  0  0  0  0  0  0  0  0
    9.4660   13.6930   22.6730 C   0  0  0  0  0  0  0  0  0  0  0  0
   10.2490   14.7570   22.3090 O   0  0  0  0  0  0  0  0  0  0  0  0
   12.2950   16.2600   22.3540 H   0  0  0  0  0  0  0  0  0  0  0  0
   13.4720   15.0050   22.7840 H   0  0  0  0  0  0  0  0  0  0  0  0
   12.8940   15.1250   21.1300 H   0  0  0  0  0  0  0  0  0  0  0  0
   12.4060   12.4770   23.2040 H   0  0  0  0  0  0  0  0  0  0  0  0
   11.0990   10.1700   22.3000 H   0  0  0  0  0  0  0  0  0  0  0  0
    8.4150    7.9560   24.4910 H   0  0  0  0  0  0  0  0  0  0  0  0
    6.7820    9.0030   25.8990 H   0  0  0  0  0  0  0  0  0  0  0  0
    5.7140   11.0370   26.8670 H   0  0  0  0  0  0  0  0  0  0  0  0
    6.5380   13.2480   26.2520 H   0  0  0  0  0  0  0  0  0  0  0  0
    8.4240   13.4580   24.6740 H   0  0  0  0  0  0  0  0  0  0  0  0
    8.4010   13.8570   22.5780 H   0  0  0  0  0  0  0  0  0  0  0  0
  1  2  1  0
  2  3  2  0
  3  4  1  0
  4  5  1  0
  5  6  2  0
  6  7  1  0
  7  8  2  0
  8  9  1  0
  9 10  2  0
 10 11  1  0
 11 12  2  0
 12 13  1  0
 13 14  2  0
  4 15  2  0
 15 16  1  0
 16  2  1  0
 14  5  1  0
 14  9  1  0
  1 17  1  0
  1 18  1  0
  1 19  1  0
  3 20  1  0
  6 21  1  0
  8 22  1  0
 10 23  1  0
 11 24  1  0
 12 25  1  0
 13 26  1  0
 15 27  1  0
A    1
 C1 
A    2
 C2 
A    3
 C3 
A    4
 C4 
A    5
 C5 
A    6
 C6 
A    7
 N1 
A    8
 C7 
A    9
 C8 
A   10
 C9 
A   11
 C10
A   12
 C11
A   13
 C12
A   14
 C13
A   15
 C14
A   16
 O1 
A   17
 H1 
A   18
 H2 
A   19
 H3 
A   20
 H4 
A   21
 H5 
A   22
 H6 
A   23
 H7 
A   24
 H8 
A   25
 H9 
A   26
 H10
A   27
 H11
M  END
>  <ref_pdb>  (29) 
x0554_0A

>  <ref_mols>  (29) 
x0451_0A,x0554_0A,x0556_0A,x0566_0A,x0310_0A,x0416_0A

>  <original SMILES>  (29) 
Cc1cc(-c2cncc3ccccc23)co1

>  <rationale>  (29) 
info cluster #6 (rank 2); hbond:C110; hydroph_interaction:Y89; 

>  <cluster_rank>  (29) 
2

>  <N_interactions>  (29) 
2

>  <N_interactions_lost>  (29) 
0

>  <∆∆G>  (29) 
-6.698117

>  <comRMSD>  (29) 
0.799908

>  <N_rotatable_bonds>  (29) 
2

>  <N_unconstrained_atoms>  (29) 
0

>  <N_constrained_atoms>  (29) 
16

$$$$
PV_003221019156
     RDKit          3D

 25 26  0  0  0  0  0  0  0  0999 V2000
    6.6980   10.5370   26.2820 C   0  0  0  0  0  0  0  0  0  0  0  0
    7.3070    9.5410   25.4870 O   0  0  0  0  0  0  0  0  0  0  0  0
    8.3530    9.8910   24.6860 C   0  0  0  0  0  0  0  0  0  0  0  0
    9.0650    8.9100   23.9930 C   0  0  0  0  0  0  0  0  0  0  0  0
   10.1180    9.2660   23.1880 C   0  0  0  0  0  0  0  0  0  0  0  0
   10.4620   10.5950   23.0810 C   0  0  0  0  0  0  0  0  0  0  0  0
    9.7760   11.6060   23.7530 C   0  0  0  0  0  0  0  0  0  0  0  0
   10.2630   12.9930   23.5340 C   0  0  0  0  0  0  0  0  0  0  0  0
    9.9740   14.0870   24.2050 N   0  0  0  0  0  0  0  0  0  0  0  0
   10.6760   15.1300   23.6370 N   0  0  0  0  0  0  0  0  0  0  0  0
   11.3720   14.6420   22.6350 C   0  0  0  0  0  0  0  0  0  0  0  0
   12.2210   15.2920   21.7740 C   0  0  0  0  0  0  0  0  0  0  0  0
   11.1290   13.3140   22.5420 N   0  0  0  0  0  0  0  0  0  0  0  0
    8.7070   11.2840   24.5690 C   0  0  0  0  0  0  0  0  0  0  0  0
    6.1280   10.0400   27.0640 H   0  0  0  0  0  0  0  0  0  0  0  0
    7.4420   11.1880   26.7550 H   0  0  0  0  0  0  0  0  0  0  0  0
    6.0150   11.1590   25.6980 H   0  0  0  0  0  0  0  0  0  0  0  0
    8.7960    7.8630   24.0820 H   0  0  0  0  0  0  0  0  0  0  0  0
   10.6720    8.5100   22.6500 H   0  0  0  0  0  0  0  0  0  0  0  0
   11.2970   10.8450   22.4490 H   0  0  0  0  0  0  0  0  0  0  0  0
   12.0880   16.3790   21.7500 H   0  0  0  0  0  0  0  0  0  0  0  0
   12.3070   15.0320   20.7300 H   0  0  0  0  0  0  0  0  0  0  0  0
   13.2190   15.1440   22.1550 H   0  0  0  0  0  0  0  0  0  0  0  0
   11.5250   12.6810   21.8510 H   0  0  0  0  0  0  0  0  0  0  0  0
    8.1320   12.0340   25.1180 H   0  0  0  0  0  0  0  0  0  0  0  0
  1  2  1  0
  2  3  1  0
  3  4  2  0
  4  5  1  0
  5  6  2  0
  6  7  1  0
  7  8  1  0
  8  9  2  0
  9 10  1  0
 10 11  2  0
 11 12  1  0
 11 13  1  0
  7 14  2  0
 14  3  1  0
 13  8  1  0
  1 15  1  0
  1 16  1  0
  1 17  1  0
  4 18  1  0
  5 19  1  0
  6 20  1  0
 12 21  1  0
 12 22  1  0
 12 23  1  0
 13 24  1  0
 14 25  1  0
A    1
 C1 
A    2
 O1 
A    3
 C2 
A    4
 C3 
A    5
 C4 
A    6
 C5 
A    7
 C6 
A    8
 C7 
A    9
 N1 
A   10
 N2 
A   11
 C8 
A   12
 C9 
A   13
 N3 
A   14
 C10
A   15
 H1 
A   16
 H2 
A   17
 H3 
A   18
 H4 
A   19
 H5 
A   20
 H6 
A   21
 H7 
A   22
 H8 
A   23
 H9 
A   24
 H10
A   25
 H11
M  END
>  <ref_pdb>  (30) 
x0554_0A

>  <ref_mols>  (30) 
x0451_0A,x0554_0A,x0556_0A,x0566_0A,x0310_0A,x0416_0A

>  <original SMILES>  (30) 
COc1cccc(-c2nnc(C)[nH]2)c1

>  <rationale>  (30) 
info cluster #19 (rank 2); hbond:S87; hydroph_interaction:Y89+V124; 

>  <cluster_rank>  (30) 
2

>  <N_interactions>  (30) 
4

>  <N_interactions_lost>  (30) 
0

>  <∆∆G>  (30) 
-8.741204

>  <comRMSD>  (30) 
0.671231

>  <N_rotatable_bonds>  (30) 
4

>  <N_unconstrained_atoms>  (30) 
0

>  <N_constrained_atoms>  (30) 
14

$$$$
Z28155823
     RDKit          3D

 29 31  0  0  0  0  0  0  0  0999 V2000
   11.4300   12.4110   24.0550 O   0  0  0  0  0  0  0  0  0  0  0  0
   10.5640   12.9840   23.4200 C   0  0  0  0  0  0  0  0  0  0  0  0
    9.2500   12.7080   23.5110 N   0  0  0  0  0  0  0  0  0  0  0  0
    8.8250   11.5420   24.0010 C   0  0  0  0  0  0  0  0  0  0  0  0
    9.3470   10.3360   23.5060 C   0  0  0  0  0  0  0  0  0  0  0  0
    8.9590    9.1220   23.9680 C   0  0  0  0  0  0  0  0  0  0  0  0
    7.9620    9.0760   25.0130 C   0  0  0  0  0  0  0  0  0  0  0  0
    7.4310   10.2120   25.5060 C   0  0  0  0  0  0  0  0  0  0  0  0
    6.4170   10.2160   26.5480 C   0  0  0  0  0  0  0  0  0  0  0  0
    5.8080   11.2770   27.1370 C   0  0  0  0  0  0  0  0  0  0  0  0
    6.2900   12.4810   26.6000 C   0  0  0  0  0  0  0  0  0  0  0  0
    7.2710   12.5450   25.5830 C   0  0  0  0  0  0  0  0  0  0  0  0
    7.8530   11.4180   25.0200 C   0  0  0  0  0  0  0  0  0  0  0  0
   10.7600   13.9920   22.5330 C   0  0  0  0  0  0  0  0  0  0  0  0
   11.7570   14.2580   21.6330 C   0  0  0  0  0  0  0  0  0  0  0  0
   11.4130   15.4470   20.9860 C   0  0  0  0  0  0  0  0  0  0  0  0
   10.2280   15.8630   21.5030 C   0  0  0  0  0  0  0  0  0  0  0  0
    9.7990   14.9990   22.4510 O   0  0  0  0  0  0  0  0  0  0  0  0
    8.5990   13.4800   23.5450 H   0  0  0  0  0  0  0  0  0  0  0  0
   10.0840   10.3640   22.7260 H   0  0  0  0  0  0  0  0  0  0  0  0
    9.3810    8.1870   23.5720 H   0  0  0  0  0  0  0  0  0  0  0  0
    7.6690    8.1570   25.3680 H   0  0  0  0  0  0  0  0  0  0  0  0
    6.1050    9.2570   26.9060 H   0  0  0  0  0  0  0  0  0  0  0  0
    5.0580   11.1840   27.9120 H   0  0  0  0  0  0  0  0  0  0  0  0
    5.8960   13.4160   26.9750 H   0  0  0  0  0  0  0  0  0  0  0  0
    7.6580   13.4550   25.1500 H   0  0  0  0  0  0  0  0  0  0  0  0
   12.6550   13.7150   21.4080 H   0  0  0  0  0  0  0  0  0  0  0  0
   11.9880   15.9370   20.2160 H   0  0  0  0  0  0  0  0  0  0  0  0
    9.6630   16.7520   21.2300 H   0  0  0  0  0  0  0  0  0  0  0  0
  1  2  2  0
  2  3  1  0
  3  4  1  0
  4  5  2  0
  5  6  1  0
  6  7  2  0
  7  8  1  0
  8  9  2  0
  9 10  1  0
 10 11  2  0
 11 12  1  0
 12 13  2  0
  2 14  1  0
 14 15  2  0
 15 16  1  0
 16 17  2  0
 17 18  1  0
 13  4  1  0
 13  8  1  0
 18 14  1  0
  3 19  1  0
  5 20  1  0
  6 21  1  0
  7 22  1  0
  9 23  1  0
 10 24  1  0
 11 25  1  0
 12 26  1  0
 15 27  1  0
 16 28  1  0
 17 29  1  0
A    1
 O1 
A    2
 C1 
A    3
 N1 
A    4
 C2 
A    5
 C3 
A    6
 C4 
A    7
 C5 
A    8
 C6 
A    9
 C7 
A   10
 C8 
A   11
 C9 
A   12
 C10
A   13
 C11
A   14
 C12
A   15
 C13
A   16
 C14
A   17
 C15
A   18
 O2 
A   19
 H1 
A   20
 H2 
A   21
 H3 
A   22
 H4 
A   23
 H5 
A   24
 H6 
A   25
 H7 
A   26
 H8 
A   27
 H9 
A   28
 H10
A   29
 H11
M  END
>  <ref_pdb>  (31) 
x0554_0A

>  <ref_mols>  (31) 
x0451_0A,x0554_0A,x0556_0A,x0566_0A,x0310_0A,x0416_0A

>  <original SMILES>  (31) 
O=C(Nc1cccc2ccccc12)c1ccco1

>  <rationale>  (31) 
info cluster #1 (rank 2); hbond:T126+G127; hydroph_interaction:Y90; 

>  <cluster_rank>  (31) 
2

>  <N_interactions>  (31) 
3

>  <N_interactions_lost>  (31) 
0

>  <∆∆G>  (31) 
-7.002562

>  <comRMSD>  (31) 
0.687572

>  <N_rotatable_bonds>  (31) 
2

>  <N_unconstrained_atoms>  (31) 
0

>  <N_constrained_atoms>  (31) 
18

$$$$
Z57819213
     RDKit          3D

 28 30  0  0  0  0  0  0  0  0999 V2000
    8.1100   13.8280   24.6630 O   0  0  0  0  0  0  0  0  0  0  0  0
    9.1290   13.4420   24.0900 C   0  0  0  0  0  0  0  0  0  0  0  0
    9.8860   12.2690   24.5040 C   0  0  0  0  0  0  0  0  0  0  0  0
    9.5420   11.1230   25.1160 C   0  0  0  0  0  0  0  0  0  0  0  0
    8.2230   10.9110   25.5960 C   0  0  0  0  0  0  0  0  0  0  0  0
    7.3990    9.8120   25.2550 C   0  0  0  0  0  0  0  0  0  0  0  0
    6.1210    9.7860   25.9040 C   0  0  0  0  0  0  0  0  0  0  0  0
    5.7060   10.8260   26.8530 C   0  0  0  0  0  0  0  0  0  0  0  0
    3.9090   10.8590   27.8980 I   0  0  0  0  0  0  0  0  0  0  0  0
    6.5790   11.8360   27.0710 C   0  0  0  0  0  0  0  0  0  0  0  0
    7.7940   11.8800   26.4650 C   0  0  0  0  0  0  0  0  0  0  0  0
   11.1360   12.6050   24.0940 C   0  0  0  0  0  0  0  0  0  0  0  0
   12.1950   12.2570   24.6300 O   0  0  0  0  0  0  0  0  0  0  0  0
   11.0490   13.5020   22.9430 C   0  0  0  0  0  0  0  0  0  0  0  0
   11.9690   13.8200   21.9980 C   0  0  0  0  0  0  0  0  0  0  0  0
   11.5730   14.7050   21.0040 C   0  0  0  0  0  0  0  0  0  0  0  0
   10.2660   15.2320   21.0050 C   0  0  0  0  0  0  0  0  0  0  0  0
    9.3390   14.8820   22.0030 C   0  0  0  0  0  0  0  0  0  0  0  0
    9.7780   13.9990   22.9730 C   0  0  0  0  0  0  0  0  0  0  0  0
   10.3040   10.3710   25.2800 H   0  0  0  0  0  0  0  0  0  0  0  0
    7.7220    9.0430   24.5620 H   0  0  0  0  0  0  0  0  0  0  0  0
    5.3630    9.0620   25.8010 H   0  0  0  0  0  0  0  0  0  0  0  0
    6.3180   12.6390   27.7570 H   0  0  0  0  0  0  0  0  0  0  0  0
    8.4520   12.7150   26.6910 H   0  0  0  0  0  0  0  0  0  0  0  0
   12.9420   13.3910   22.0370 H   0  0  0  0  0  0  0  0  0  0  0  0
   12.2730   14.9900   20.2270 H   0  0  0  0  0  0  0  0  0  0  0  0
    9.9720   15.9210   20.2170 H   0  0  0  0  0  0  0  0  0  0  0  0
    8.3280   15.2820   22.0150 H   0  0  0  0  0  0  0  0  0  0  0  0
  1  2  2  0
  2  3  1  0
  3  4  2  3
  4  5  1  0
  5  6  2  0
  6  7  1  0
  7  8  2  0
  8  9  1  0
  8 10  1  0
 10 11  2  0
  3 12  1  0
 12 13  2  0
 12 14  1  0
 14 15  2  0
 15 16  1  0
 16 17  2  0
 17 18  1  0
 18 19  2  0
 19  2  1  0
 11  5  1  0
 19 14  1  0
  4 20  1  0
  6 21  1  0
  7 22  1  0
 10 23  1  0
 11 24  1  0
 15 25  1  0
 16 26  1  0
 17 27  1  0
 18 28  1  0
A    1
 O1 
A    2
 C1 
A    3
 C2 
A    4
 C3 
A    5
 C4 
A    6
 C5 
A    7
 C6 
A    8
 C7 
A    9
 I1 
A   10
 C8 
A   11
 C9 
A   12
 C10
A   13
 O2 
A   14
 C11
A   15
 C12
A   16
 C13
A   17
 C14
A   18
 C15
A   19
 C16
A   20
 H1 
A   21
 H2 
A   22
 H3 
A   23
 H4 
A   24
 H5 
A   25
 H6 
A   26
 H7 
A   27
 H8 
A   28
 H9 
M  END
>  <ref_pdb>  (32) 
x0554_0A

>  <ref_mols>  (32) 
x0451_0A,x0554_0A,x0556_0A,x0566_0A,x0310_0A,x0416_0A

>  <original SMILES>  (32) 
O=C1C(=Cc2ccc(I)cc2)C(=O)c2ccccc21

>  <rationale>  (32) 
info cluster #18 (rank 2); hydroph_interaction:P107; 

>  <cluster_rank>  (32) 
2

>  <N_interactions>  (32) 
1

>  <N_interactions_lost>  (32) 
0

>  <∆∆G>  (32) 
-5.76869

>  <comRMSD>  (32) 
0.827882

>  <N_rotatable_bonds>  (32) 
1

>  <N_unconstrained_atoms>  (32) 
1

>  <N_constrained_atoms>  (32) 
18

$$$$
PV_002135588712
     RDKit          3D

 28 30  0  0  0  0  0  0  0  0999 V2000
   11.4920   13.8930   24.9340 O   0  0  0  0  0  0  0  0  0  0  0  0
   11.2990   13.6240   23.7570 C   0  0  0  0  0  0  0  0  0  0  0  0
   10.6660   12.4450   23.3090 N   0  0  0  0  0  0  0  0  0  0  0  0
    9.5440   12.1870   24.0060 C   0  0  0  0  0  0  0  0  0  0  0  0
    8.9460   10.8930   24.2450 C   0  0  0  0  0  0  0  0  0  0  0  0
    9.6230    9.2330   23.5630 Br  0  0  0  0  0  0  0  0  0  0  0  0
    7.8270   10.9070   25.0220 C   0  0  0  0  0  0  0  0  0  0  0  0
    7.2470    9.7440   25.2860 C   0  0  0  0  0  0  0  0  0  0  0  0
    6.0180    9.7600   26.1240 C   0  0  0  0  0  0  0  0  0  0  0  0
    5.5040   11.0280   26.6360 C   0  0  0  0  0  0  0  0  0  0  0  0
    6.1790   12.1590   26.3130 C   0  0  0  0  0  0  0  0  0  0  0  0
    7.3000   12.0980   25.5310 C   0  0  0  0  0  0  0  0  0  0  0  0
    7.8600   13.2940   25.2910 N   0  0  0  0  0  0  0  0  0  0  0  0
    8.9490   13.2960   24.5480 C   0  0  0  0  0  0  0  0  0  0  0  0
   11.6260   14.4950   22.7220 C   0  0  0  0  0  0  0  0  0  0  0  0
   12.2730   14.2770   21.5530 C   0  0  0  0  0  0  0  0  0  0  0  0
   12.3330   15.4410   20.8900 C   0  0  0  0  0  0  0  0  0  0  0  0
   11.7120   16.3780   21.6440 C   0  0  0  0  0  0  0  0  0  0  0  0
   11.2670   15.8300   22.7990 O   0  0  0  0  0  0  0  0  0  0  0  0
   10.6610   12.3850   22.2720 H   0  0  0  0  0  0  0  0  0  0  0  0
    7.6510    8.8200   24.9070 H   0  0  0  0  0  0  0  0  0  0  0  0
    5.4930    8.8950   26.3710 H   0  0  0  0  0  0  0  0  0  0  0  0
    4.6070   11.0730   27.2560 H   0  0  0  0  0  0  0  0  0  0  0  0
    5.8290   13.1230   26.6730 H   0  0  0  0  0  0  0  0  0  0  0  0
    9.3440   14.2980   24.4060 H   0  0  0  0  0  0  0  0  0  0  0  0
   12.6560   13.3200   21.2430 H   0  0  0  0  0  0  0  0  0  0  0  0
   12.7850   15.6030   19.9240 H   0  0  0  0  0  0  0  0  0  0  0  0
   11.5070   17.4230   21.5230 H   0  0  0  0  0  0  0  0  0  0  0  0
  1  2  2  0
  2  3  1  0
  3  4  1  0
  4  5  2  0
  5  6  1  0
  5  7  1  0
  7  8  2  0
  8  9  1  0
  9 10  2  0
 10 11  1  0
 11 12  2  0
 12 13  1  0
 13 14  2  0
  2 15  1  0
 15 16  2  0
 16 17  1  0
 17 18  2  0
 18 19  1  0
 14  4  1  0
 12  7  1  0
 19 15  1  0
  3 20  1  0
  8 21  1  0
  9 22  1  0
 10 23  1  0
 11 24  1  0
 14 25  1  0
 16 26  1  0
 17 27  1  0
 18 28  1  0
A    1
 O1 
A    2
 C1 
A    3
 N1 
A    4
 C2 
A    5
 C3 
A    6
BR1 
A    7
 C4 
A    8
 C5 
A    9
 C6 
A   10
 C7 
A   11
 C8 
A   12
 C9 
A   13
 N2 
A   14
 C10
A   15
 C11
A   16
 C12
A   17
 C13
A   18
 C14
A   19
 O2 
A   20
 H1 
A   21
 H2 
A   22
 H3 
A   23
 H4 
A   24
 H5 
A   25
 H6 
A   26
 H7 
A   27
 H8 
A   28
 H9 
M  END
>  <ref_pdb>  (33) 
x0554_0A

>  <ref_mols>  (33) 
x0451_0A,x0554_0A,x0556_0A,x0566_0A,x0310_0A,x0416_0A

>  <original SMILES>  (33) 
O=C(Nc1cnc2ccccc2c1Br)c1ccco1

>  <rationale>  (33) 
info cluster #7 (rank 2); hbond:S125; hydroph_interaction:Y90; pistack:Y89; 

>  <cluster_rank>  (33) 
2

>  <N_interactions>  (33) 
3

>  <N_interactions_lost>  (33) 
0

>  <∆∆G>  (33) 
-7.018536

>  <comRMSD>  (33) 
0.947398

>  <N_rotatable_bonds>  (33) 
2

>  <N_unconstrained_atoms>  (33) 
0

>  <N_constrained_atoms>  (33) 
19

$$$$
Z227671872
     RDKit          3D

 30 32  0  0  0  0  0  0  0  0999 V2000
    8.7490    7.7790   23.3710 C   0  0  0  0  0  0  0  0  0  0  0  0
    9.2120    9.5060   23.4750 S   0  0  0  0  0  0  0  0  0  0  0  0
    8.1060   10.2420   24.6390 C   0  0  0  0  0  0  0  0  0  0  0  0
    7.1360    9.5770   25.0930 N   0  0  0  0  0  0  0  0  0  0  0  0
    6.3070   10.1560   26.0420 C   0  0  0  0  0  0  0  0  0  0  0  0
    5.3170    9.3950   26.4570 N   0  0  0  0  0  0  0  0  0  0  0  0
    4.4360    9.8660   27.4630 C   0  0  0  0  0  0  0  0  0  0  0  0
    4.5720   11.1150   28.0150 C   0  0  0  0  0  0  0  0  0  0  0  0
    5.6110   11.8920   27.5320 C   0  0  0  0  0  0  0  0  0  0  0  0
    6.4700   11.3950   26.5400 C   0  0  0  0  0  0  0  0  0  0  0  0
    7.5040   12.1410   26.0400 C   0  0  0  0  0  0  0  0  0  0  0  0
    7.6110   13.2700   26.4930 O   0  0  0  0  0  0  0  0  0  0  0  0
    8.3490   11.5350   25.0190 N   0  0  0  0  0  0  0  0  0  0  0  0
    8.8760   12.3680   24.1530 C   0  0  0  0  0  0  0  0  0  0  0  0
    8.0780   13.2660   23.5330 C   0  0  0  0  0  0  0  0  0  0  0  0
    8.7720   14.1900   22.5550 C   0  0  0  0  0  0  0  0  0  0  0  0
   10.2490   14.0720   22.3270 C   0  0  0  0  0  0  0  0  0  0  0  0
   10.9460   13.1160   23.0210 C   0  0  0  0  0  0  0  0  0  0  0  0
   10.2660   12.2820   23.9150 C   0  0  0  0  0  0  0  0  0  0  0  0
    8.4880    7.3830   24.3550 H   0  0  0  0  0  0  0  0  0  0  0  0
    7.9000    7.6260   22.7010 H   0  0  0  0  0  0  0  0  0  0  0  0
    9.5960    7.2210   22.9870 H   0  0  0  0  0  0  0  0  0  0  0  0
    3.6420    9.1980   27.7850 H   0  0  0  0  0  0  0  0  0  0  0  0
    3.8910   11.4760   28.7910 H   0  0  0  0  0  0  0  0  0  0  0  0
    5.7680   12.8920   27.9200 H   0  0  0  0  0  0  0  0  0  0  0  0
    7.0050   13.3410   23.7080 H   0  0  0  0  0  0  0  0  0  0  0  0
    8.2730   14.9710   21.9730 H   0  0  0  0  0  0  0  0  0  0  0  0
   10.6820   14.7730   21.6050 H   0  0  0  0  0  0  0  0  0  0  0  0
   12.0160   13.0160   22.8740 H   0  0  0  0  0  0  0  0  0  0  0  0
   10.8510   11.5370   24.4470 H   0  0  0  0  0  0  0  0  0  0  0  0
  1  2  1  0
  2  3  1  0
  3  4  2  0
  4  5  1  0
  5  6  2  0
  6  7  1  0
  7  8  2  0
  8  9  1  0
  9 10  2  0
 10 11  1  0
 11 12  2  0
 11 13  1  0
 13 14  1  0
 14 15  2  0
 15 16  1  0
 16 17  2  0
 17 18  1  0
 18 19  2  0
 13  3  1  0
 10  5  1  0
 19 14  1  0
  1 20  1  0
  1 21  1  0
  1 22  1  0
  7 23  1  0
  8 24  1  0
  9 25  1  0
 15 26  1  0
 16 27  1  0
 17 28  1  0
 18 29  1  0
 19 30  1  0
A    1
 C1 
A    2
 S1 
A    3
 C2 
A    4
 N1 
A    5
 C3 
A    6
 N2 
A    7
 C4 
A    8
 C5 
A    9
 C6 
A   10
 C7 
A   11
 C8 
A   12
 O1 
A   13
 N3 
A   14
 C9 
A   15
 C10
A   16
 C11
A   17
 C12
A   18
 C13
A   19
 C14
A   20
 H1 
A   21
 H2 
A   22
 H3 
A   23
 H4 
A   24
 H5 
A   25
 H6 
A   26
 H7 
A   27
 H8 
A   28
 H9 
A   29
 H10
A   30
 H11
M  END
>  <ref_pdb>  (34) 
x0554_0A

>  <ref_mols>  (34) 
x0451_0A,x0554_0A,x0556_0A,x0566_0A,x0310_0A,x0416_0A

>  <original SMILES>  (34) 
CSc1nc2ncccc2c(=O)n1-c1ccccc1

>  <rationale>  (34) 
info cluster #15 (rank 2); hbond:S105; 

>  <cluster_rank>  (34) 
2

>  <N_interactions>  (34) 
1

>  <N_interactions_lost>  (34) 
0

>  <∆∆G>  (34) 
-6.329524

>  <comRMSD>  (34) 
0.844159

>  <N_rotatable_bonds>  (34) 
2

>  <N_unconstrained_atoms>  (34) 
1

>  <N_constrained_atoms>  (34) 
18

$$$$
PV_004263405327
     RDKit          3D

 26 28  0  0  0  0  0  0  0  0999 V2000
    5.4050    9.6800   26.6980 N   0  0  0  0  0  0  0  0  0  0  0  0
    6.4780   10.3400   26.1100 C   0  0  0  0  0  0  0  0  0  0  0  0
    6.4840   11.8340   26.2320 C   0  0  0  0  0  0  0  0  0  0  0  0
    7.6360   12.5660   25.5850 C   0  0  0  0  0  0  0  0  0  0  0  0
    8.6560   11.6960   24.8810 C   0  0  0  0  0  0  0  0  0  0  0  0
    9.6490   12.3840   24.3010 C   0  0  0  0  0  0  0  0  0  0  0  0
    9.4320   12.9270   23.0980 C   0  0  0  0  0  0  0  0  0  0  0  0
   10.5280   13.6350   22.5980 C   0  0  0  0  0  0  0  0  0  0  0  0
   10.4780   14.2470   21.3750 N   0  0  0  0  0  0  0  0  0  0  0  0
   11.6000   14.9930   20.8910 C   0  0  0  0  0  0  0  0  0  0  0  0
   12.7340   15.0280   21.8070 C   0  0  0  0  0  0  0  0  0  0  0  0
   12.6970   14.2920   23.1500 C   0  0  0  0  0  0  0  0  0  0  0  0
   11.5660   13.6170   23.4810 C   0  0  0  0  0  0  0  0  0  0  0  0
   11.2020   12.7100   24.8990 S   0  0  0  0  0  0  0  0  0  0  0  0
    8.5630   10.3240   24.8320 C   0  0  0  0  0  0  0  0  0  0  0  0
    7.5060    9.6770   25.4330 C   0  0  0  0  0  0  0  0  0  0  0  0
    5.4900    9.4670   27.6890 H   0  0  0  0  0  0  0  0  0  0  0  0
    5.0180    8.9100   26.1520 H   0  0  0  0  0  0  0  0  0  0  0  0
    5.7000   12.3720   26.7550 H   0  0  0  0  0  0  0  0  0  0  0  0
    7.7090   13.6510   25.6280 H   0  0  0  0  0  0  0  0  0  0  0  0
    8.4940   12.8250   22.5780 H   0  0  0  0  0  0  0  0  0  0  0  0
   11.5560   15.4790   19.9180 H   0  0  0  0  0  0  0  0  0  0  0  0
   13.6170   15.5820   21.5220 H   0  0  0  0  0  0  0  0  0  0  0  0
   13.5390   14.3040   23.8190 H   0  0  0  0  0  0  0  0  0  0  0  0
    9.3180    9.7280   24.3180 H   0  0  0  0  0  0  0  0  0  0  0  0
    7.5050    8.6140   25.3610 H   0  0  0  0  0  0  0  0  0  0  0  0
  1  2  1  0
  2  3  2  0
  3  4  1  0
  4  5  2  0
  5  6  1  0
  6  7  2  0
  7  8  1  0
  8  9  2  0
  9 10  1  0
 10 11  2  0
 11 12  1  0
 12 13  2  0
 13 14  1  0
  5 15  1  0
 15 16  2  0
 16  2  1  0
 14  6  1  0
 13  8  1  0
  1 17  1  0
  1 18  1  0
  3 19  1  0
  4 20  1  0
  7 21  1  0
 10 22  1  0
 11 23  1  0
 12 24  1  0
 15 25  1  0
 16 26  1  0
A    1
 N1 
A    2
 C1 
A    3
 C2 
A    4
 C3 
A    5
 C4 
A    6
 C5 
A    7
 C6 
A    8
 C7 
A    9
 N2 
A   10
 C8 
A   11
 C9 
A   12
 C10
A   13
 C11
A   14
 S1 
A   15
 C12
A   16
 C13
A   17
 H1 
A   18
 H2 
A   19
 H3 
A   20
 H4 
A   21
 H5 
A   22
 H6 
A   23
 H7 
A   24
 H8 
A   25
 H9 
A   26
 H10
M  END
>  <ref_pdb>  (35) 
x0554_0A

>  <ref_mols>  (35) 
x0451_0A,x0554_0A,x0556_0A,x0566_0A,x0310_0A,x0416_0A

>  <original SMILES>  (35) 
Nc1ccc(-c2cc3ncccc3s2)cc1

>  <rationale>  (35) 
info cluster #4 (rank 2); hbond:S105; hydroph_interaction:Y89; 

>  <cluster_rank>  (35) 
2

>  <N_interactions>  (35) 
2

>  <N_interactions_lost>  (35) 
0

>  <∆∆G>  (35) 
-6.572125

>  <comRMSD>  (35) 
0.975814

>  <N_rotatable_bonds>  (35) 
2

>  <N_unconstrained_atoms>  (35) 
0

>  <N_constrained_atoms>  (35) 
16

$$$$
PV_002415489238
     RDKit          3D

 31 33  0  0  0  0  0  0  0  0999 V2000
    8.5770    7.2520   22.6930 C   0  0  0  0  0  0  0  0  0  0  0  0
    8.9680    7.8930   23.8050 O   0  0  0  0  0  0  0  0  0  0  0  0
    9.4630    9.1680   23.6970 C   0  0  0  0  0  0  0  0  0  0  0  0
   10.6350    9.7140   23.0460 C   0  0  0  0  0  0  0  0  0  0  0  0
   11.0110   11.0300   23.0390 C   0  0  0  0  0  0  0  0  0  0  0  0
   10.2690   11.9940   23.6750 C   0  0  0  0  0  0  0  0  0  0  0  0
    9.1280   11.4980   24.3070 C   0  0  0  0  0  0  0  0  0  0  0  0
    8.7480   10.1530   24.3140 C   0  0  0  0  0  0  0  0  0  0  0  0
    7.7390    9.8290   24.8930 O   0  0  0  0  0  0  0  0  0  0  0  0
    7.2550   11.0700   25.4100 C   0  0  0  0  0  0  0  0  0  0  0  0
    6.0090   11.0710   26.1850 C   0  0  0  0  0  0  0  0  0  0  0  0
    5.3590   10.0420   26.3890 O   0  0  0  0  0  0  0  0  0  0  0  0
    5.5790   12.2930   26.6490 N   0  0  0  0  0  0  0  0  0  0  0  0
    5.5350   13.5380   25.8510 C   0  0  0  0  0  0  0  0  0  0  0  0
    5.2840   14.4050   26.8940 C   0  0  0  0  0  0  0  0  0  0  0  0
    5.1060   13.8040   28.1070 C   0  0  0  0  0  0  0  0  0  0  0  0
    5.2170   12.4270   28.0640 C   0  0  0  0  0  0  0  0  0  0  0  0
    8.1100   12.0930   25.0520 C   0  0  0  0  0  0  0  0  0  0  0  0
    9.0890    7.7400   21.8810 H   0  0  0  0  0  0  0  0  0  0  0  0
    8.8450    6.1910   22.7190 H   0  0  0  0  0  0  0  0  0  0  0  0
    7.5100    7.3240   22.5020 H   0  0  0  0  0  0  0  0  0  0  0  0
   11.2970    9.0490   22.5100 H   0  0  0  0  0  0  0  0  0  0  0  0
   11.9000   11.3520   22.5320 H   0  0  0  0  0  0  0  0  0  0  0  0
   10.4440   13.0730   23.7520 H   0  0  0  0  0  0  0  0  0  0  0  0
    6.4370   13.5690   25.2600 H   0  0  0  0  0  0  0  0  0  0  0  0
    4.7190   13.4230   25.1440 H   0  0  0  0  0  0  0  0  0  0  0  0
    5.2300   15.4840   26.7590 H   0  0  0  0  0  0  0  0  0  0  0  0
    4.8990   14.3540   29.0190 H   0  0  0  0  0  0  0  0  0  0  0  0
    6.0120   11.9710   28.6450 H   0  0  0  0  0  0  0  0  0  0  0  0
    4.3170   11.8460   28.2380 H   0  0  0  0  0  0  0  0  0  0  0  0
    8.0040   13.1440   25.3010 H   0  0  0  0  0  0  0  0  0  0  0  0
  1  2  1  0
  2  3  1  0
  3  4  2  0
  4  5  1  0
  5  6  2  0
  6  7  1  0
  7  8  2  0
  8  9  1  0
  9 10  1  0
 10 11  1  0
 11 12  2  0
 11 13  1  0
 13 14  1  0
 14 15  1  0
 15 16  2  0
 16 17  1  0
 10 18  2  0
  8  3  1  0
 18  7  1  0
 17 13  1  0
  1 19  1  0
  1 20  1  0
  1 21  1  0
  4 22  1  0
  5 23  1  0
  6 24  1  0
 14 25  1  0
 14 26  1  0
 15 27  1  0
 16 28  1  0
 17 29  1  0
 17 30  1  0
 18 31  1  0
A    1
 C1 
A    2
 O1 
A    3
 C2 
A    4
 C3 
A    5
 C4 
A    6
 C5 
A    7
 C6 
A    8
 C7 
A    9
 O2 
A   10
 C8 
A   11
 C9 
A   12
 O3 
A   13
 N1 
A   14
 C10
A   15
 C11
A   16
 C12
A   17
 C13
A   18
 C14
A   19
 H1 
A   20
 H2 
A   21
 H3 
A   22
 H4 
A   23
 H5 
A   24
 H6 
A   25
 H7 
A   26
 H8 
A   27
 H9 
A   28
 H10
A   29
 H11
A   30
 H12
A   31
 H13
M  END
>  <ref_pdb>  (36) 
x0554_0A

>  <ref_mols>  (36) 
x0451_0A,x0554_0A,x0556_0A,x0566_0A,x0310_0A,x0416_0A

>  <original SMILES>  (36) 
COc1cccc2cc(C(=O)N3CC=CC3)oc12

>  <rationale>  (36) 
info cluster #16 (rank 2); hbond:E106; 

>  <cluster_rank>  (36) 
2

>  <N_interactions>  (36) 
1

>  <N_interactions_lost>  (36) 
0

>  <∆∆G>  (36) 
-7.717858

>  <comRMSD>  (36) 
0.499922

>  <N_rotatable_bonds>  (36) 
3

>  <N_unconstrained_atoms>  (36) 
2

>  <N_constrained_atoms>  (36) 
17

$$$$
Z666703410
     RDKit          3D

 29 31  0  0  0  0  0  0  0  0999 V2000
    5.0120    9.9240   27.6690 C   0  0  0  0  0  0  0  0  0  0  0  0
    5.9080   10.7880   26.8630 C   0  0  0  0  0  0  0  0  0  0  0  0
    5.8180   12.1000   26.8840 C   0  0  0  0  0  0  0  0  0  0  0  0
    6.6590   12.9660   26.1120 C   0  0  0  0  0  0  0  0  0  0  0  0
    7.6120   12.4150   25.2940 C   0  0  0  0  0  0  0  0  0  0  0  0
    8.3730   13.3020   24.5750 N   0  0  0  0  0  0  0  0  0  0  0  0
    9.3010   12.8370   23.8630 C   0  0  0  0  0  0  0  0  0  0  0  0
   10.0490   13.7510   23.1410 C   0  0  0  0  0  0  0  0  0  0  0  0
   10.9640   13.2710   22.2980 C   0  0  0  0  0  0  0  0  0  0  0  0
   11.7710   14.0780   21.5180 C   0  0  0  0  0  0  0  0  0  0  0  0
   11.6190   15.4340   21.6220 C   0  0  0  0  0  0  0  0  0  0  0  0
   10.7100   15.9820   22.4600 N   0  0  0  0  0  0  0  0  0  0  0  0
    9.9420   15.1270   23.2030 C   0  0  0  0  0  0  0  0  0  0  0  0
    9.5670   11.4730   23.7920 N   0  0  0  0  0  0  0  0  0  0  0  0
    8.7470   10.5160   24.3670 C   0  0  0  0  0  0  0  0  0  0  0  0
    8.8790    9.3190   24.1220 O   0  0  0  0  0  0  0  0  0  0  0  0
    7.7430   11.0330   25.2430 C   0  0  0  0  0  0  0  0  0  0  0  0
    6.9030   10.2200   26.0280 C   0  0  0  0  0  0  0  0  0  0  0  0
    4.5110    9.1920   27.0320 H   0  0  0  0  0  0  0  0  0  0  0  0
    5.5610    9.3900   28.4470 H   0  0  0  0  0  0  0  0  0  0  0  0
    4.2470   10.5390   28.1500 H   0  0  0  0  0  0  0  0  0  0  0  0
    5.0660   12.5650   27.5170 H   0  0  0  0  0  0  0  0  0  0  0  0
    6.5420   14.0450   26.1680 H   0  0  0  0  0  0  0  0  0  0  0  0
   11.0270   12.2280   22.2680 H   0  0  0  0  0  0  0  0  0  0  0  0
   12.4970   13.6300   20.8500 H   0  0  0  0  0  0  0  0  0  0  0  0
   12.2160   16.1200   21.0440 H   0  0  0  0  0  0  0  0  0  0  0  0
    9.2320   15.6220   23.8520 H   0  0  0  0  0  0  0  0  0  0  0  0
   10.2400   11.0920   23.1400 H   0  0  0  0  0  0  0  0  0  0  0  0
    7.0150    9.1580   25.9920 H   0  0  0  0  0  0  0  0  0  0  0  0
  1  2  1  0
  2  3  2  0
  3  4  1  0
  4  5  2  0
  5  6  1  0
  6  7  2  0
  7  8  1  0
  8  9  2  0
  9 10  1  0
 10 11  2  0
 11 12  1  0
 12 13  2  0
  7 14  1  0
 14 15  1  0
 15 16  2  0
 15 17  1  0
 17 18  2  0
 18  2  1  0
 17  5  1  0
 13  8  1  0
  1 19  1  0
  1 20  1  0
  1 21  1  0
  3 22  1  0
  4 23  1  0
  9 24  1  0
 10 25  1  0
 11 26  1  0
 13 27  1  0
 14 28  1  0
 18 29  1  0
A    1
 C1 
A    2
 C2 
A    3
 C3 
A    4
 C4 
A    5
 C5 
A    6
 N1 
A    7
 C6 
A    8
 C7 
A    9
 C8 
A   10
 C9 
A   11
 C10
A   12
 N2 
A   13
 C11
A   14
 N3 
A   15
 C12
A   16
 O1 
A   17
 C13
A   18
 C14
A   19
 H1 
A   20
 H2 
A   21
 H3 
A   22
 H4 
A   23
 H5 
A   24
 H6 
A   25
 H7 
A   26
 H8 
A   27
 H9 
A   28
 H10
A   29
 H11
M  END
>  <ref_pdb>  (37) 
x0554_0A

>  <ref_mols>  (37) 
x0451_0A,x0554_0A,x0556_0A,x0566_0A,x0310_0A,x0416_0A

>  <original SMILES>  (37) 
Cc1ccc2nc(-c3cccnc3)[nH]c(=O)c2c1

>  <rationale>  (37) 
info cluster #8 (rank 2); hbond:S125+S87; 

>  <cluster_rank>  (37) 
2

>  <N_interactions>  (37) 
2

>  <N_interactions_lost>  (37) 
0

>  <∆∆G>  (37) 
-5.739273

>  <comRMSD>  (37) 
0.631084

>  <N_rotatable_bonds>  (37) 
2

>  <N_unconstrained_atoms>  (37) 
1

>  <N_constrained_atoms>  (37) 
17

$$$$
Z1416572646
     RDKit          3D

 31 33  0  0  0  0  0  0  0  0999 V2000
   10.8400   15.0140   24.0630 C   0  0  0  0  0  0  0  0  0  0  0  0
   11.1850   15.3460   22.6810 C   0  0  0  0  0  0  0  0  0  0  0  0
   11.9700   14.1980   22.2170 C   0  0  0  0  0  0  0  0  0  0  0  0
   12.1380   13.2210   23.2130 C   0  0  0  0  0  0  0  0  0  0  0  0
   11.8540   11.8750   22.7610 N   0  0  0  0  0  0  0  0  0  0  0  0
   10.8370   11.0600   23.1080 C   0  0  0  0  0  0  0  0  0  0  0  0
    9.8900   11.5110   23.9250 N   0  0  0  0  0  0  0  0  0  0  0  0
    8.9580   10.5360   24.1450 C   0  0  0  0  0  0  0  0  0  0  0  0
    7.9280   10.8190   24.9600 C   0  0  0  0  0  0  0  0  0  0  0  0
    7.5680   12.1190   25.2640 C   0  0  0  0  0  0  0  0  0  0  0  0
    6.5020   12.3840   26.1130 C   0  0  0  0  0  0  0  0  0  0  0  0
    5.7810   11.3360   26.6620 C   0  0  0  0  0  0  0  0  0  0  0  0
    6.1370   10.0200   26.3590 C   0  0  0  0  0  0  0  0  0  0  0  0
    7.2240    9.7800   25.5050 C   0  0  0  0  0  0  0  0  0  0  0  0
    9.1650    9.3380   23.5070 C   0  0  0  0  0  0  0  0  0  0  0  0
   10.5880    9.4310   22.6010 S   0  0  0  0  0  0  0  0  0  0  0  0
   11.3830   13.6910   24.4840 C   0  0  0  0  0  0  0  0  0  0  0  0
   10.2440   15.7340   24.6280 H   0  0  0  0  0  0  0  0  0  0  0  0
   10.9300   16.2310   22.1140 H   0  0  0  0  0  0  0  0  0  0  0  0
   12.9190   14.5660   21.8320 H   0  0  0  0  0  0  0  0  0  0  0  0
   11.4510   13.7530   21.3620 H   0  0  0  0  0  0  0  0  0  0  0  0
   13.2050   13.2160   23.4690 H   0  0  0  0  0  0  0  0  0  0  0  0
   11.9620   11.8120   21.7580 H   0  0  0  0  0  0  0  0  0  0  0  0
    8.1100   12.9640   24.8490 H   0  0  0  0  0  0  0  0  0  0  0  0
    6.2220   13.4070   26.3510 H   0  0  0  0  0  0  0  0  0  0  0  0
    4.9450   11.5430   27.3230 H   0  0  0  0  0  0  0  0  0  0  0  0
    5.5580    9.2320   26.8000 H   0  0  0  0  0  0  0  0  0  0  0  0
    7.5170    8.7710   25.2700 H   0  0  0  0  0  0  0  0  0  0  0  0
    8.5780    8.4340   23.5240 H   0  0  0  0  0  0  0  0  0  0  0  0
   10.5830   13.0280   24.8190 H   0  0  0  0  0  0  0  0  0  0  0  0
   12.0810   13.8210   25.3180 H   0  0  0  0  0  0  0  0  0  0  0  0
  1  2  2  0
  2  3  1  0
  3  4  1  0
  4  5  1  0
  5  6  1  0
  6  7  2  0
  7  8  1  0
  8  9  1  0
  9 10  2  0
 10 11  1  0
 11 12  2  0
 12 13  1  0
 13 14  2  0
  8 15  2  0
 15 16  1  0
  4 17  1  0
 17  1  1  0
 16  6  1  0
 14  9  1  0
  1 18  1  0
  2 19  1  0
  3 20  1  0
  3 21  1  0
  4 22  1  0
  5 23  1  0
 10 24  1  0
 11 25  1  0
 12 26  1  0
 13 27  1  0
 14 28  1  0
 15 29  1  0
 17 30  1  0
 17 31  1  0
A    1
 C1 
A    2
 C2 
A    3
 C3 
A    4
 C4 
A    5
 N1 
A    6
 C5 
A    7
 N2 
A    8
 C6 
A    9
 C7 
A   10
 C8 
A   11
 C9 
A   12
 C10
A   13
 C11
A   14
 C12
A   15
 C13
A   16
 S1 
A   17
 C14
A   18
 H1 
A   19
 H2 
A   20
 H3 
A   21
 H4 
A   22
 H5 
A   23
 H6 
A   24
 H7 
A   25
 H8 
A   26
 H9 
A   27
 H10
A   28
 H11
A   29
 H12
A   30
 H13
A   31
 H14
M  END
>  <ref_pdb>  (38) 
x0554_0A

>  <ref_mols>  (38) 
x0451_0A,x0554_0A,x0556_0A,x0566_0A,x0310_0A,x0416_0A

>  <original SMILES>  (38) 
C1=CCC(Nc2nc(-c3ccccc3)cs2)C1

>  <rationale>  (38) 
info cluster #5 (rank 2); hbond:H21; pistack:Y89; 

>  <cluster_rank>  (38) 
2

>  <N_interactions>  (38) 
2

>  <N_interactions_lost>  (38) 
0

>  <∆∆G>  (38) 
-6.413717

>  <comRMSD>  (38) 
0.714714

>  <N_rotatable_bonds>  (38) 
3

>  <N_unconstrained_atoms>  (38) 
0

>  <N_constrained_atoms>  (38) 
18

$$$$
PV_002897316987
     RDKit          3D

 27 29  0  0  0  0  0  0  0  0999 V2000
    6.0230    9.9400   26.0000 C   0  0  0  0  0  0  0  0  0  0  0  0
    5.7160   10.8880   26.8630 C   0  0  0  0  0  0  0  0  0  0  0  0
    6.5800   12.0850   27.0320 C   0  0  0  0  0  0  0  0  0  0  0  0
    6.2810   13.1180   27.9660 N   0  0  0  0  0  0  0  0  0  0  0  0
    5.7850   12.9400   29.2340 C   0  0  0  0  0  0  0  0  0  0  0  0
    5.6540   14.2410   29.7720 C   0  0  0  0  0  0  0  0  0  0  0  0
    6.0910   15.0890   28.7640 C   0  0  0  0  0  0  0  0  0  0  0  0
    6.4870   14.4040   27.6300 N   0  0  0  0  0  0  0  0  0  0  0  0
    7.7160   12.1530   26.2330 C   0  0  0  0  0  0  0  0  0  0  0  0
    8.0180   11.1330   25.3220 C   0  0  0  0  0  0  0  0  0  0  0  0
    9.1450   11.2490   24.5590 C   0  0  0  0  0  0  0  0  0  0  0  0
    9.9730   10.1780   24.2600 C   0  0  0  0  0  0  0  0  0  0  0  0
   11.0840   10.3170   23.5240 N   0  0  0  0  0  0  0  0  0  0  0  0
   11.3470   11.5630   23.0900 C   0  0  0  0  0  0  0  0  0  0  0  0
   10.6220   12.6560   23.3050 N   0  0  0  0  0  0  0  0  0  0  0  0
    9.5290   12.4590   24.0430 C   0  0  0  0  0  0  0  0  0  0  0  0
    7.1780   10.0420   25.2150 C   0  0  0  0  0  0  0  0  0  0  0  0
    5.3780    9.0950   25.9100 H   0  0  0  0  0  0  0  0  0  0  0  0
    4.8090   10.7540   27.4440 H   0  0  0  0  0  0  0  0  0  0  0  0
    5.5680   11.9710   29.6530 H   0  0  0  0  0  0  0  0  0  0  0  0
    5.2930   14.5040   30.7550 H   0  0  0  0  0  0  0  0  0  0  0  0
    6.1550   16.1720   28.7660 H   0  0  0  0  0  0  0  0  0  0  0  0
    8.3870   13.0150   26.3190 H   0  0  0  0  0  0  0  0  0  0  0  0
    9.7730    9.1700   24.6090 H   0  0  0  0  0  0  0  0  0  0  0  0
   12.2420   11.7080   22.5000 H   0  0  0  0  0  0  0  0  0  0  0  0
    8.9450   13.3600   24.2190 H   0  0  0  0  0  0  0  0  0  0  0  0
    7.4260    9.2600   24.5080 H   0  0  0  0  0  0  0  0  0  0  0  0
  1  2  2  0
  2  3  1  0
  3  4  1  0
  4  5  1  0
  5  6  2  0
  6  7  1  0
  7  8  2  0
  3  9  2  0
  9 10  1  0
 10 11  1  0
 11 12  2  0
 12 13  1  0
 13 14  2  0
 14 15  1  0
 15 16  2  0
 10 17  2  0
 17  1  1  0
  8  4  1  0
 16 11  1  0
  1 18  1  0
  2 19  1  0
  5 20  1  0
  6 21  1  0
  7 22  1  0
  9 23  1  0
 12 24  1  0
 14 25  1  0
 16 26  1  0
 17 27  1  0
A    1
 C1 
A    2
 C2 
A    3
 C3 
A    4
 N1 
A    5
 C4 
A    6
 C5 
A    7
 C6 
A    8
 N2 
A    9
 C7 
A   10
 C8 
A   11
 C9 
A   12
 C10
A   13
 N3 
A   14
 C11
A   15
 N4 
A   16
 C12
A   17
 C13
A   18
 H1 
A   19
 H2 
A   20
 H3 
A   21
 H4 
A   22
 H5 
A   23
 H6 
A   24
 H7 
A   25
 H8 
A   26
 H9 
A   27
 H10
M  END
>  <ref_pdb>  (39) 
x0554_0A

>  <ref_mols>  (39) 
x0451_0A,x0554_0A,x0556_0A,x0566_0A,x0310_0A,x0416_0A

>  <original SMILES>  (39) 
c1cc(-c2cncnc2)cc(-n2cccn2)c1

>  <rationale>  (39) 
info cluster #20 (rank 2); hbond:C110; hydroph_interaction:P107; 

>  <cluster_rank>  (39) 
2

>  <N_interactions>  (39) 
2

>  <N_interactions_lost>  (39) 
0

>  <∆∆G>  (39) 
-4.814872

>  <comRMSD>  (39) 
0.523036

>  <N_rotatable_bonds>  (39) 
2

>  <N_unconstrained_atoms>  (39) 
5

>  <N_constrained_atoms>  (39) 
12

$$$$
PV_002451616557
     RDKit          3D

 28 30  0  0  0  0  0  0  0  0999 V2000
    3.3540    9.1190   28.0500 C   0  0  0  0  0  0  0  0  0  0  0  0
    4.5080    9.9540   27.6560 C   0  0  0  0  0  0  0  0  0  0  0  0
    5.2260    9.8680   26.5360 C   0  0  0  0  0  0  0  0  0  0  0  0
    6.2590   10.8000   26.4810 C   0  0  0  0  0  0  0  0  0  0  0  0
    7.0150   10.7210   25.3830 N   0  0  0  0  0  0  0  0  0  0  0  0
    7.4780   11.7060   24.6130 C   0  0  0  0  0  0  0  0  0  0  0  0
    7.0150   12.8060   24.3730 O   0  0  0  0  0  0  0  0  0  0  0  0
    8.6500   11.3180   24.0980 C   0  0  0  0  0  0  0  0  0  0  0  0
    9.0460    9.8760   23.8170 C   0  0  0  0  0  0  0  0  0  0  0  0
   10.6120    9.8210   23.1940 S   0  0  0  0  0  0  0  0  0  0  0  0
   10.8020   11.5590   23.2680 C   0  0  0  0  0  0  0  0  0  0  0  0
   11.8830   12.2910   22.9100 C   0  0  0  0  0  0  0  0  0  0  0  0
   11.9240   13.6520   23.0020 C   0  0  0  0  0  0  0  0  0  0  0  0
   10.7170   14.3850   23.5270 C   0  0  0  0  0  0  0  0  0  0  0  0
    9.6320   13.6240   23.8910 C   0  0  0  0  0  0  0  0  0  0  0  0
    9.6660   12.2140   23.7660 C   0  0  0  0  0  0  0  0  0  0  0  0
    6.3560   11.6190   27.5080 N   0  0  0  0  0  0  0  0  0  0  0  0
    5.1680   11.2150   28.5850 S   0  0  0  0  0  0  0  0  0  0  0  0
    3.1200    8.3860   27.2680 H   0  0  0  0  0  0  0  0  0  0  0  0
    2.4680    9.7370   28.2260 H   0  0  0  0  0  0  0  0  0  0  0  0
    3.5680    8.5650   28.9720 H   0  0  0  0  0  0  0  0  0  0  0  0
    5.0220    9.1520   25.7740 H   0  0  0  0  0  0  0  0  0  0  0  0
    6.9380    9.8280   24.8980 H   0  0  0  0  0  0  0  0  0  0  0  0
    8.4760    8.9760   23.9690 H   0  0  0  0  0  0  0  0  0  0  0  0
   12.7640   11.8170   22.5300 H   0  0  0  0  0  0  0  0  0  0  0  0
   12.8150   14.2000   22.7020 H   0  0  0  0  0  0  0  0  0  0  0  0
   10.7060   15.4700   23.6170 H   0  0  0  0  0  0  0  0  0  0  0  0
    8.7470   14.1250   24.2780 H   0  0  0  0  0  0  0  0  0  0  0  0
  1  2  1  0
  2  3  2  0
  3  4  1  0
  4  5  1  0
  5  6  1  0
  6  7  2  0
  6  8  1  0
  8  9  2  0
  9 10  1  0
 10 11  1  0
 11 12  2  0
 12 13  1  0
 13 14  2  0
 14 15  1  0
 15 16  2  0
  4 17  2  0
 17 18  1  0
 18  2  1  0
 16  8  1  0
 16 11  1  0
  1 19  1  0
  1 20  1  0
  1 21  1  0
  3 22  1  0
  5 23  1  0
  9 24  1  0
 12 25  1  0
 13 26  1  0
 14 27  1  0
 15 28  1  0
A    1
 C1 
A    2
 C2 
A    3
 C3 
A    4
 C4 
A    5
 N1 
A    6
 C5 
A    7
 O1 
A    8
 C6 
A    9
 C7 
A   10
 S1 
A   11
 C8 
A   12
 C9 
A   13
 C10
A   14
 C11
A   15
 C12
A   16
 C13
A   17
 N2 
A   18
 S2 
A   19
 H1 
A   20
 H2 
A   21
 H3 
A   22
 H4 
A   23
 H5 
A   24
 H6 
A   25
 H7 
A   26
 H8 
A   27
 H9 
A   28
 H10
M  END
>  <ref_pdb>  (40) 
x0554_0A

>  <ref_mols>  (40) 
x0451_0A,x0554_0A,x0556_0A,x0566_0A,x0310_0A,x0416_0A

>  <original SMILES>  (40) 
Cc1cc(NC(=O)c2csc3ccccc23)ns1

>  <rationale>  (40) 
info cluster #12 (rank 2); hbond:G127+S105; 

>  <cluster_rank>  (40) 
2

>  <N_interactions>  (40) 
2

>  <N_interactions_lost>  (40) 
0

>  <∆∆G>  (40) 
-6.118175

>  <comRMSD>  (40) 
0.940371

>  <N_rotatable_bonds>  (40) 
3

>  <N_unconstrained_atoms>  (40) 
0

>  <N_constrained_atoms>  (40) 
18

$$$$
Z3219931156
     RDKit          3D

 29 30  0  0  0  0  0  0  0  0999 V2000
   11.6870   15.5870   22.0610 C   0  0  0  0  0  0  0  0  0  0  0  0
   10.8610   14.5440   22.7470 C   0  0  0  0  0  0  0  0  0  0  0  0
   11.4880   13.4040   23.3620 C   0  0  0  0  0  0  0  0  0  0  0  0
   10.7040   12.4370   23.9780 C   0  0  0  0  0  0  0  0  0  0  0  0
    9.3390   12.5350   24.0170 C   0  0  0  0  0  0  0  0  0  0  0  0
    8.4510   11.5800   24.6150 C   0  0  0  0  0  0  0  0  0  0  0  0
    7.3190   12.0440   25.2810 C   0  0  0  0  0  0  0  0  0  0  0  0
    6.4720   11.1120   25.8530 C   0  0  0  0  0  0  0  0  0  0  0  0
    6.7480    9.7800   25.7610 C   0  0  0  0  0  0  0  0  0  0  0  0
    7.8740    9.3400   25.1010 C   0  0  0  0  0  0  0  0  0  0  0  0
    8.7170   10.2220   24.5340 C   0  0  0  0  0  0  0  0  0  0  0  0
    9.8610    9.6350   23.8950 C   0  0  0  0  0  0  0  0  0  0  0  0
   10.9620    9.6070   24.6270 N   0  0  0  0  0  0  0  0  0  0  0  0
    9.8310    9.1640   22.7700 O   0  0  0  0  0  0  0  0  0  0  0  0
    8.7300   13.6450   23.4320 C   0  0  0  0  0  0  0  0  0  0  0  0
    9.4740   14.6400   22.8040 C   0  0  0  0  0  0  0  0  0  0  0  0
   11.4470   15.8220   21.0200 H   0  0  0  0  0  0  0  0  0  0  0  0
   11.5890   16.5200   22.6100 H   0  0  0  0  0  0  0  0  0  0  0  0
   12.7370   15.2710   22.0610 H   0  0  0  0  0  0  0  0  0  0  0  0
   12.5740   13.2930   23.3430 H   0  0  0  0  0  0  0  0  0  0  0  0
   11.2070   11.5920   24.4290 H   0  0  0  0  0  0  0  0  0  0  0  0
    7.0100   13.0680   25.4100 H   0  0  0  0  0  0  0  0  0  0  0  0
    5.5960   11.4800   26.3670 H   0  0  0  0  0  0  0  0  0  0  0  0
    6.0850    9.0660   26.2080 H   0  0  0  0  0  0  0  0  0  0  0  0
    8.0820    8.2800   25.0430 H   0  0  0  0  0  0  0  0  0  0  0  0
   11.5030    8.7660   24.7460 H   0  0  0  0  0  0  0  0  0  0  0  0
   11.3870   10.4950   24.8550 H   0  0  0  0  0  0  0  0  0  0  0  0
    7.6460   13.7410   23.4580 H   0  0  0  0  0  0  0  0  0  0  0  0
    8.9620   15.4830   22.3580 H   0  0  0  0  0  0  0  0  0  0  0  0
  1  2  1  0
  2  3  2  0
  3  4  1  0
  4  5  2  0
  5  6  1  0
  6  7  2  0
  7  8  1  0
  8  9  2  0
  9 10  1  0
 10 11  2  0
 11 12  1  0
 12 13  1  0
 12 14  2  0
  5 15  1  0
 15 16  2  0
 16  2  1  0
 11  6  1  0
  1 17  1  0
  1 18  1  0
  1 19  1  0
  3 20  1  0
  4 21  1  0
  7 22  1  0
  8 23  1  0
  9 24  1  0
 10 25  1  0
 13 26  1  0
 13 27  1  0
 15 28  1  0
 16 29  1  0
A    1
 C1 
A    2
 C2 
A    3
 C3 
A    4
 C4 
A    5
 C5 
A    6
 C6 
A    7
 C7 
A    8
 C8 
A    9
 C9 
A   10
 C10
A   11
 C11
A   12
 C12
A   13
 N1 
A   14
 O1 
A   15
 C13
A   16
 C14
A   17
 H1 
A   18
 H2 
A   19
 H3 
A   20
 H4 
A   21
 H5 
A   22
 H6 
A   23
 H7 
A   24
 H8 
A   25
 H9 
A   26
 H10
A   27
 H11
A   28
 H12
A   29
 H13
M  END
>  <ref_pdb>  (41) 
x0554_0A

>  <ref_mols>  (41) 
x0451_0A,x0554_0A,x0556_0A,x0566_0A,x0310_0A,x0416_0A

>  <original SMILES>  (41) 
Cc1ccc(-c2ccccc2C(N)=O)cc1

>  <rationale>  (41) 
info cluster #17 (rank 2); hbond:C110+G108+D109; hydroph_interaction:Y89; 

>  <cluster_rank>  (41) 
2

>  <N_interactions>  (41) 
4

>  <N_interactions_lost>  (41) 
0

>  <∆∆G>  (41) 
-6.203116

>  <comRMSD>  (41) 
0.894296

>  <N_rotatable_bonds>  (41) 
3

>  <N_unconstrained_atoms>  (41) 
0

>  <N_constrained_atoms>  (41) 
16

$$$$
Z816168964
     RDKit          3D

 30 31  0  0  0  0  0  0  0  0999 V2000
   11.7270   15.8230   22.2130 C   0  0  0  0  0  0  0  0  0  0  0  0
   11.4050   14.5480   22.7280 C   0  0  0  0  0  0  0  0  0  0  0  0
   11.9870   13.4080   22.2750 C   0  0  0  0  0  0  0  0  0  0  0  0
   11.5350   12.2840   22.8890 C   0  0  0  0  0  0  0  0  0  0  0  0
   10.5930   12.5040   23.8300 C   0  0  0  0  0  0  0  0  0  0  0  0
   10.0300   11.4640   24.5330 C   0  0  0  0  0  0  0  0  0  0  0  0
    9.6040   10.3780   23.6630 C   0  0  0  0  0  0  0  0  0  0  0  0
   10.2830    9.7990   22.8280 O   0  0  0  0  0  0  0  0  0  0  0  0
    8.2960   10.0900   23.9240 N   0  0  0  0  0  0  0  0  0  0  0  0
    7.4910   10.6650   24.9090 C   0  0  0  0  0  0  0  0  0  0  0  0
    6.8240    9.9080   25.8050 C   0  0  0  0  0  0  0  0  0  0  0  0
    6.0410   10.5200   26.7460 C   0  0  0  0  0  0  0  0  0  0  0  0
    5.9040   11.8800   26.8250 C   0  0  0  0  0  0  0  0  0  0  0  0
    5.1440   12.5760   27.7360 C   0  0  0  0  0  0  0  0  0  0  0  0
    4.5210   13.1900   28.4910 N   0  0  0  0  0  0  0  0  0  0  0  0
    6.5970   12.6630   25.9010 C   0  0  0  0  0  0  0  0  0  0  0  0
    7.3900   12.0540   24.9420 C   0  0  0  0  0  0  0  0  0  0  0  0
   10.2570   14.2030   23.9680 S   0  0  0  0  0  0  0  0  0  0  0  0
   11.4910   16.5700   22.9530 H   0  0  0  0  0  0  0  0  0  0  0  0
   11.1580   16.0360   21.3030 H   0  0  0  0  0  0  0  0  0  0  0  0
   12.7890   15.8790   21.9490 H   0  0  0  0  0  0  0  0  0  0  0  0
   12.7300   13.3850   21.4970 H   0  0  0  0  0  0  0  0  0  0  0  0
   11.8820   11.3020   22.6540 H   0  0  0  0  0  0  0  0  0  0  0  0
   10.8520   11.0200   25.1050 H   0  0  0  0  0  0  0  0  0  0  0  0
    9.3340   11.7550   25.3150 H   0  0  0  0  0  0  0  0  0  0  0  0
    7.8330    9.5160   23.2340 H   0  0  0  0  0  0  0  0  0  0  0  0
    6.9130    8.8510   25.7710 H   0  0  0  0  0  0  0  0  0  0  0  0
    5.5140    9.8730   27.4540 H   0  0  0  0  0  0  0  0  0  0  0  0
    6.5160   13.7460   25.9290 H   0  0  0  0  0  0  0  0  0  0  0  0
    7.9240   12.6730   24.2240 H   0  0  0  0  0  0  0  0  0  0  0  0
  1  2  1  0
  2  3  2  0
  3  4  1  0
  4  5  2  0
  5  6  1  0
  6  7  1  0
  7  8  2  0
  7  9  1  0
  9 10  1  0
 10 11  2  0
 11 12  1  0
 12 13  2  0
 13 14  1  0
 14 15  3  0
 13 16  1  0
 16 17  2  0
  5 18  1  0
 18  2  1  0
 17 10  1  0
  1 19  1  0
  1 20  1  0
  1 21  1  0
  3 22  1  0
  4 23  1  0
  6 24  1  0
  6 25  1  0
  9 26  1  0
 11 27  1  0
 12 28  1  0
 16 29  1  0
 17 30  1  0
A    1
 C1 
A    2
 C2 
A    3
 C3 
A    4
 C4 
A    5
 C5 
A    6
 C6 
A    7
 C7 
A    8
 O1 
A    9
 N1 
A   10
 C8 
A   11
 C9 
A   12
 C10
A   13
 C11
A   14
 C12
A   15
 N2 
A   16
 C13
A   17
 C14
A   18
 S1 
A   19
 H1 
A   20
 H2 
A   21
 H3 
A   22
 H4 
A   23
 H5 
A   24
 H6 
A   25
 H7 
A   26
 H8 
A   27
 H9 
A   28
 H10
A   29
 H11
A   30
 H12
M  END
>  <ref_pdb>  (42) 
x0554_0A

>  <ref_mols>  (42) 
x0451_0A,x0554_0A,x0556_0A,x0566_0A,x0310_0A,x0416_0A

>  <original SMILES>  (42) 
Cc1ccc(CC(=O)Nc2ccc(C#N)cc2)s1

>  <rationale>  (42) 
info cluster #3 (rank 2); hbond:C110+T126; hydroph_interaction:Y89; 

>  <cluster_rank>  (42) 
2

>  <N_interactions>  (42) 
3

>  <N_interactions_lost>  (42) 
0

>  <∆∆G>  (42) 
-5.394186

>  <comRMSD>  (42) 
0.649243

>  <N_rotatable_bonds>  (42) 
4

>  <N_unconstrained_atoms>  (42) 
0

>  <N_constrained_atoms>  (42) 
18

$$$$
PV_002817464183
     RDKit          3D

 27 29  0  0  0  0  0  0  0  0999 V2000
   12.6180   15.2770   22.1620 C   0  0  0  0  0  0  0  0  0  0  0  0
   11.5000   14.3840   22.4570 C   0  0  0  0  0  0  0  0  0  0  0  0
   11.4840   13.1300   23.0000 C   0  0  0  0  0  0  0  0  0  0  0  0
   10.1920   12.6880   23.0520 C   0  0  0  0  0  0  0  0  0  0  0  0
    9.7070   11.4520   23.4900 C   0  0  0  0  0  0  0  0  0  0  0  0
   10.2780   10.1990   23.0160 C   0  0  0  0  0  0  0  0  0  0  0  0
    9.8760    8.9300   23.3440 C   0  0  0  0  0  0  0  0  0  0  0  0
    8.7850    8.9970   24.2450 C   0  0  0  0  0  0  0  0  0  0  0  0
    8.1970   10.1090   24.7390 C   0  0  0  0  0  0  0  0  0  0  0  0
    7.0910    9.9790   25.6530 C   0  0  0  0  0  0  0  0  0  0  0  0
    6.4650   11.0930   26.1790 C   0  0  0  0  0  0  0  0  0  0  0  0
    6.9250   12.3780   25.8080 C   0  0  0  0  0  0  0  0  0  0  0  0
    7.9890   12.4990   24.9240 C   0  0  0  0  0  0  0  0  0  0  0  0
    8.6360   11.3870   24.3810 C   0  0  0  0  0  0  0  0  0  0  0  0
    9.4120   13.6890   22.5510 N   0  0  0  0  0  0  0  0  0  0  0  0
   10.2420   14.7430   22.1810 O   0  0  0  0  0  0  0  0  0  0  0  0
   12.3050   16.3030   22.3220 H   0  0  0  0  0  0  0  0  0  0  0  0
   12.9200   15.1960   21.1150 H   0  0  0  0  0  0  0  0  0  0  0  0
   13.4570   15.0200   22.7950 H   0  0  0  0  0  0  0  0  0  0  0  0
   12.3540   12.5640   23.3240 H   0  0  0  0  0  0  0  0  0  0  0  0
   11.1080   10.2620   22.3230 H   0  0  0  0  0  0  0  0  0  0  0  0
   10.2390    7.9630   23.0410 H   0  0  0  0  0  0  0  0  0  0  0  0
    8.4120    8.0300   24.5510 H   0  0  0  0  0  0  0  0  0  0  0  0
    6.7260    9.0140   25.9470 H   0  0  0  0  0  0  0  0  0  0  0  0
    5.6340   10.9790   26.8660 H   0  0  0  0  0  0  0  0  0  0  0  0
    6.4480   13.2690   26.2100 H   0  0  0  0  0  0  0  0  0  0  0  0
    8.3190   13.5020   24.6550 H   0  0  0  0  0  0  0  0  0  0  0  0
  1  2  1  0
  2  3  2  0
  3  4  1  0
  4  5  1  0
  5  6  2  0
  6  7  1  0
  7  8  2  0
  8  9  1  0
  9 10  2  0
 10 11  1  0
 11 12  2  0
 12 13  1  0
 13 14  2  0
  4 15  2  0
 15 16  1  0
 16  2  1  0
 14  5  1  0
 14  9  1  0
  1 17  1  0
  1 18  1  0
  1 19  1  0
  3 20  1  0
  6 21  1  0
  7 22  1  0
  8 23  1  0
 10 24  1  0
 11 25  1  0
 12 26  1  0
 13 27  1  0
A    1
 C1 
A    2
 C2 
A    3
 C3 
A    4
 C4 
A    5
 C5 
A    6
 C6 
A    7
 C7 
A    8
 C8 
A    9
 C9 
A   10
 C10
A   11
 C11
A   12
 C12
A   13
 C13
A   14
 C14
A   15
 N1 
A   16
 O1 
A   17
 H1 
A   18
 H2 
A   19
 H3 
A   20
 H4 
A   21
 H5 
A   22
 H6 
A   23
 H7 
A   24
 H8 
A   25
 H9 
A   26
 H10
A   27
 H11
M  END
>  <ref_pdb>  (43) 
x0554_0A

>  <ref_mols>  (43) 
x0451_0A,x0554_0A,x0556_0A,x0566_0A,x0310_0A,x0416_0A

>  <original SMILES>  (43) 
Cc1cc(-c2cccc3ccccc23)no1

>  <rationale>  (43) 
info cluster #11 (rank 3); hydroph_interaction:Y89+V124; 

>  <cluster_rank>  (43) 
3

>  <N_interactions>  (43) 
2

>  <N_interactions_lost>  (43) 
0

>  <∆∆G>  (43) 
-7.966034

>  <comRMSD>  (43) 
0.791471

>  <N_rotatable_bonds>  (43) 
2

>  <N_unconstrained_atoms>  (43) 
0

>  <N_constrained_atoms>  (43) 
16

$$$$
Z1899841608
     RDKit          3D

 27 29  0  0  0  0  0  0  0  0999 V2000
   11.5610   15.6200   17.4840 C   0  0  0  0  0  0  0  0  0  0  0  0
   10.8980   15.9740   18.7310 C   0  0  0  0  0  0  0  0  0  0  0  0
   11.0710   15.3000   19.8690 N   0  0  0  0  0  0  0  0  0  0  0  0
   10.3230   15.9040   20.8160 N   0  0  0  0  0  0  0  0  0  0  0  0
   10.5390   15.6120   22.1070 C   0  0  0  0  0  0  0  0  0  0  0  0
   10.7740   14.2240   22.5960 C   0  0  0  0  0  0  0  0  0  0  0  0
   12.0330   13.6450   22.6280 C   0  0  0  0  0  0  0  0  0  0  0  0
   11.9140   12.0620   23.2500 S   0  0  0  0  0  0  0  0  0  0  0  0
   10.2260   12.2450   23.4240 C   0  0  0  0  0  0  0  0  0  0  0  0
    9.4070   11.2310   23.9090 C   0  0  0  0  0  0  0  0  0  0  0  0
    8.3210   11.4880   24.7480 C   0  0  0  0  0  0  0  0  0  0  0  0
    7.4840   10.0810   25.2020 S   0  0  0  0  0  0  0  0  0  0  0  0
    8.5550    9.1130   24.2840 C   0  0  0  0  0  0  0  0  0  0  0  0
    9.5410    9.8360   23.6350 C   0  0  0  0  0  0  0  0  0  0  0  0
    9.7460   13.4190   23.0590 N   0  0  0  0  0  0  0  0  0  0  0  0
    9.7870   17.1350   20.4440 C   0  0  0  0  0  0  0  0  0  0  0  0
    9.3470   18.0140   21.1450 O   0  0  0  0  0  0  0  0  0  0  0  0
    9.8530   17.3330   18.7160 S   0  0  0  0  0  0  0  0  0  0  0  0
   10.8960   15.7930   16.6360 H   0  0  0  0  0  0  0  0  0  0  0  0
   11.8490   14.5740   17.4910 H   0  0  0  0  0  0  0  0  0  0  0  0
   12.4570   16.2210   17.3420 H   0  0  0  0  0  0  0  0  0  0  0  0
    9.7650   16.1780   22.5950 H   0  0  0  0  0  0  0  0  0  0  0  0
   11.4600   16.1490   22.3620 H   0  0  0  0  0  0  0  0  0  0  0  0
   12.9690   14.0760   22.3250 H   0  0  0  0  0  0  0  0  0  0  0  0
    8.0330   12.4810   25.0830 H   0  0  0  0  0  0  0  0  0  0  0  0
    8.4520    8.0350   24.2330 H   0  0  0  0  0  0  0  0  0  0  0  0
   10.3120    9.4000   23.0070 H   0  0  0  0  0  0  0  0  0  0  0  0
  1  2  1  0
  2  3  2  0
  3  4  1  0
  4  5  1  0
  5  6  1  0
  6  7  2  0
  7  8  1  0
  8  9  1  0
  9 10  1  0
 10 11  2  0
 11 12  1  0
 12 13  1  0
 13 14  2  0
  9 15  2  0
  4 16  1  0
 16 17  2  0
 16 18  1  0
 18  2  1  0
 15  6  1  0
 14 10  1  0
  1 19  1  0
  1 20  1  0
  1 21  1  0
  5 22  1  0
  5 23  1  0
  7 24  1  0
 11 25  1  0
 13 26  1  0
 14 27  1  0
A    1
 C1 
A    2
 C2 
A    3
 N1 
A    4
 N2 
A    5
 C3 
A    6
 C4 
A    7
 C5 
A    8
 S1 
A    9
 C6 
A   10
 C7 
A   11
 C8 
A   12
 S2 
A   13
 C9 
A   14
 C10
A   15
 N3 
A   16
 C11
A   17
 O1 
A   18
 S3 
A   19
 H1 
A   20
 H2 
A   21
 H3 
A   22
 H4 
A   23
 H5 
A   24
 H6 
A   25
 H7 
A   26
 H8 
A   27
 H9 
M  END
>  <ref_pdb>  (44) 
x0554_0A

>  <ref_mols>  (44) 
x0451_0A,x0554_0A,x0556_0A,x0566_0A,x0310_0A,x0416_0A

>  <original SMILES>  (44) 
Cc1nn(Cc2csc(-c3ccsc3)n2)c(=O)s1

>  <rationale>  (44) 
info cluster #13 (rank 3); hydroph_interaction:Y90+D39; 

>  <cluster_rank>  (44) 
3

>  <N_interactions>  (44) 
2

>  <N_interactions_lost>  (44) 
0

>  <∆∆G>  (44) 
-10.109348

>  <comRMSD>  (44) 
0.84176

>  <N_rotatable_bonds>  (44) 
4

>  <N_unconstrained_atoms>  (44) 
8

>  <N_constrained_atoms>  (44) 
11

$$$$
PV_002843301758
     RDKit          3D

 27 29  0  0  0  0  0  0  0  0999 V2000
   12.6460   15.3210   22.1200 C   0  0  0  0  0  0  0  0  0  0  0  0
   11.5140   14.4420   22.4160 C   0  0  0  0  0  0  0  0  0  0  0  0
   11.5190   13.1210   22.9360 C   0  0  0  0  0  0  0  0  0  0  0  0
   10.2760   12.6270   23.0490 C   0  0  0  0  0  0  0  0  0  0  0  0
    9.7780   11.3390   23.4770 C   0  0  0  0  0  0  0  0  0  0  0  0
   10.3280   10.1330   23.0080 C   0  0  0  0  0  0  0  0  0  0  0  0
    9.8240    8.9090   23.4040 C   0  0  0  0  0  0  0  0  0  0  0  0
    8.7630    8.8590   24.2760 C   0  0  0  0  0  0  0  0  0  0  0  0
    8.2060   10.0350   24.7510 C   0  0  0  0  0  0  0  0  0  0  0  0
    7.0890    9.9750   25.6650 C   0  0  0  0  0  0  0  0  0  0  0  0
    6.5230   11.1240   26.1470 C   0  0  0  0  0  0  0  0  0  0  0  0
    7.0790   12.3480   25.7090 C   0  0  0  0  0  0  0  0  0  0  0  0
    8.1180   12.4310   24.8550 N   0  0  0  0  0  0  0  0  0  0  0  0
    8.6960   11.3000   24.3670 C   0  0  0  0  0  0  0  0  0  0  0  0
    9.4430   13.6600   22.6100 N   0  0  0  0  0  0  0  0  0  0  0  0
   10.2130   14.6950   22.2490 N   0  0  0  0  0  0  0  0  0  0  0  0
   12.3190   16.3350   22.2980 H   0  0  0  0  0  0  0  0  0  0  0  0
   12.9270   15.2180   21.0680 H   0  0  0  0  0  0  0  0  0  0  0  0
   13.4740   15.0510   22.7530 H   0  0  0  0  0  0  0  0  0  0  0  0
   12.4350   12.5930   23.1870 H   0  0  0  0  0  0  0  0  0  0  0  0
   11.1600   10.1330   22.3200 H   0  0  0  0  0  0  0  0  0  0  0  0
   10.2720    7.9990   23.0220 H   0  0  0  0  0  0  0  0  0  0  0  0
    8.3530    7.9150   24.6030 H   0  0  0  0  0  0  0  0  0  0  0  0
    6.6830    9.0340   25.9810 H   0  0  0  0  0  0  0  0  0  0  0  0
    5.6820   11.0990   26.8320 H   0  0  0  0  0  0  0  0  0  0  0  0
    6.6790   13.3010   26.0490 H   0  0  0  0  0  0  0  0  0  0  0  0
    9.7690   15.5340   21.8970 H   0  0  0  0  0  0  0  0  0  0  0  0
  1  2  1  0
  2  3  2  0
  3  4  1  0
  4  5  1  0
  5  6  2  0
  6  7  1  0
  7  8  2  0
  8  9  1  0
  9 10  2  0
 10 11  1  0
 11 12  2  0
 12 13  1  0
 13 14  2  0
  4 15  2  0
 15 16  1  0
 16  2  1  0
 14  5  1  0
 14  9  1  0
  1 17  1  0
  1 18  1  0
  1 19  1  0
  3 20  1  0
  6 21  1  0
  7 22  1  0
  8 23  1  0
 10 24  1  0
 11 25  1  0
 12 26  1  0
 16 27  1  0
A    1
 C1 
A    2
 C2 
A    3
 C3 
A    4
 C4 
A    5
 C5 
A    6
 C6 
A    7
 C7 
A    8
 C8 
A    9
 C9 
A   10
 C10
A   11
 C11
A   12
 C12
A   13
 N1 
A   14
 C13
A   15
 N2 
A   16
 N3 
A   17
 H1 
A   18
 H2 
A   19
 H3 
A   20
 H4 
A   21
 H5 
A   22
 H6 
A   23
 H7 
A   24
 H8 
A   25
 H9 
A   26
 H10
A   27
 H11
M  END
>  <ref_pdb>  (45) 
x0554_0A

>  <ref_mols>  (45) 
x0451_0A,x0554_0A,x0556_0A,x0566_0A,x0310_0A,x0416_0A

>  <original SMILES>  (45) 
Cc1cc(-c2cccc3cccnc23)n[nH]1

>  <rationale>  (45) 
info cluster #14 (rank 3); hydroph_interaction:Y89+D109+V124; 

>  <cluster_rank>  (45) 
3

>  <N_interactions>  (45) 
3

>  <N_interactions_lost>  (45) 
0

>  <∆∆G>  (45) 
-7.413155

>  <comRMSD>  (45) 
0.809443

>  <N_rotatable_bonds>  (45) 
2

>  <N_unconstrained_atoms>  (45) 
0

>  <N_constrained_atoms>  (45) 
16

$$$$
PV_002767220329
     RDKit          3D

 27 29  0  0  0  0  0  0  0  0999 V2000
   11.3010   12.4850   22.7940 C   0  0  0  0  0  0  0  0  0  0  0  0
   11.4050   13.9510   22.5640 C   0  0  0  0  0  0  0  0  0  0  0  0
   10.4330   14.9110   23.0610 C   0  0  0  0  0  0  0  0  0  0  0  0
   11.4520   15.8450   22.5780 O   0  0  0  0  0  0  0  0  0  0  0  0
   12.1920   15.0250   21.9590 C   0  0  0  0  0  0  0  0  0  0  0  0
   10.2920   11.7040   23.4600 C   0  0  0  0  0  0  0  0  0  0  0  0
   10.3080   10.2670   23.3790 C   0  0  0  0  0  0  0  0  0  0  0  0
    9.3480    9.5730   24.0420 C   0  0  0  0  0  0  0  0  0  0  0  0
    8.3840   10.2350   24.7680 C   0  0  0  0  0  0  0  0  0  0  0  0
    7.4030    9.5180   25.4770 C   0  0  0  0  0  0  0  0  0  0  0  0
    6.4190   10.1590   26.2000 C   0  0  0  0  0  0  0  0  0  0  0  0
    6.3560   11.5230   26.2690 C   0  0  0  0  0  0  0  0  0  0  0  0
    7.3160   12.2610   25.5940 C   0  0  0  0  0  0  0  0  0  0  0  0
    8.3220   11.6180   24.8530 C   0  0  0  0  0  0  0  0  0  0  0  0
    9.2910   12.3520   24.1870 C   0  0  0  0  0  0  0  0  0  0  0  0
   12.1440   11.9390   22.3730 H   0  0  0  0  0  0  0  0  0  0  0  0
   10.2630   15.0380   24.1250 H   0  0  0  0  0  0  0  0  0  0  0  0
    9.4920   15.0430   22.5300 H   0  0  0  0  0  0  0  0  0  0  0  0
   12.1110   15.1540   20.8860 H   0  0  0  0  0  0  0  0  0  0  0  0
   13.2210   15.1020   22.2500 H   0  0  0  0  0  0  0  0  0  0  0  0
   11.0750    9.7380   22.8060 H   0  0  0  0  0  0  0  0  0  0  0  0
    9.4260    8.4900   23.9450 H   0  0  0  0  0  0  0  0  0  0  0  0
    7.4610    8.4710   25.4350 H   0  0  0  0  0  0  0  0  0  0  0  0
    5.6150    9.6860   26.7780 H   0  0  0  0  0  0  0  0  0  0  0  0
    5.5840   12.0230   26.8350 H   0  0  0  0  0  0  0  0  0  0  0  0
    7.2770   13.3400   25.6490 H   0  0  0  0  0  0  0  0  0  0  0  0
    9.2790   13.4380   24.2340 H   0  0  0  0  0  0  0  0  0  0  0  0
  1  2  2  3
  2  3  1  0
  3  4  1  0
  4  5  1  0
  1  6  1  0
  6  7  2  0
  7  8  1  0
  8  9  2  0
  9 10  1  0
 10 11  2  0
 11 12  1  0
 12 13  2  0
 13 14  1  0
 14 15  2  0
  5  2  1  0
 15  6  1  0
 14  9  1  0
  1 16  1  0
  3 17  1  0
  3 18  1  0
  5 19  1  0
  5 20  1  0
  7 21  1  0
  8 22  1  0
 10 23  1  0
 11 24  1  0
 12 25  1  0
 13 26  1  0
 15 27  1  0
A    1
 C1 
A    2
 C2 
A    3
 C3 
A    4
 O1 
A    5
 C4 
A    6
 C5 
A    7
 C6 
A    8
 C7 
A    9
 C8 
A   10
 C9 
A   11
 C10
A   12
 C11
A   13
 C12
A   14
 C13
A   15
 C14
A   16
 H1 
A   17
 H2 
A   18
 H3 
A   19
 H4 
A   20
 H5 
A   21
 H6 
A   22
 H7 
A   23
 H8 
A   24
 H9 
A   25
 H10
A   26
 H11
A   27
 H12
M  END
>  <ref_pdb>  (46) 
x0554_0A

>  <ref_mols>  (46) 
x0451_0A,x0554_0A,x0556_0A,x0566_0A,x0310_0A,x0416_0A

>  <original SMILES>  (46) 
C(=C1COC1)c1ccc2ccccc2c1

>  <rationale>  (46) 
info cluster #2 (rank 3); hbond:S87; 

>  <cluster_rank>  (46) 
3

>  <N_interactions>  (46) 
1

>  <N_interactions_lost>  (46) 
0

>  <∆∆G>  (46) 
-6.764896

>  <comRMSD>  (46) 
0.790502

>  <N_rotatable_bonds>  (46) 
1

>  <N_unconstrained_atoms>  (46) 
0

>  <N_constrained_atoms>  (46) 
16

$$$$
PV_002756268131
     RDKit          3D

 28 30  0  0  0  0  0  0  0  0999 V2000
    8.7880    9.8470   24.2160 C   0  0  0  0  0  0  0  0  0  0  0  0
    7.8020   10.5960   25.0340 C   0  0  0  0  0  0  0  0  0  0  0  0
    7.0530    9.6850   25.7550 C   0  0  0  0  0  0  0  0  0  0  0  0
    6.0660   10.2240   26.5760 C   0  0  0  0  0  0  0  0  0  0  0  0
    5.8840   11.6820   26.6360 N   0  0  0  0  0  0  0  0  0  0  0  0
    6.6760   12.4410   25.8920 C   0  0  0  0  0  0  0  0  0  0  0  0
    7.6630   11.9530   25.0620 C   0  0  0  0  0  0  0  0  0  0  0  0
    8.5730   12.6270   24.2220 C   0  0  0  0  0  0  0  0  0  0  0  0
    9.9250   12.4270   24.2080 C   0  0  0  0  0  0  0  0  0  0  0  0
   10.5120   13.2350   23.2900 C   0  0  0  0  0  0  0  0  0  0  0  0
   11.8260   13.3790   22.9530 C   0  0  0  0  0  0  0  0  0  0  0  0
   12.1360   14.2820   21.9640 C   0  0  0  0  0  0  0  0  0  0  0  0
   11.1390   15.0100   21.3470 C   0  0  0  0  0  0  0  0  0  0  0  0
    9.8160   14.8700   21.6940 C   0  0  0  0  0  0  0  0  0  0  0  0
    9.5150   13.9630   22.6880 C   0  0  0  0  0  0  0  0  0  0  0  0
    8.3210   13.5830   23.2750 N   0  0  0  0  0  0  0  0  0  0  0  0
    9.6970    9.6570   24.7970 H   0  0  0  0  0  0  0  0  0  0  0  0
    8.3770    8.8820   23.9050 H   0  0  0  0  0  0  0  0  0  0  0  0
    9.0590   10.4080   23.3170 H   0  0  0  0  0  0  0  0  0  0  0  0
    7.2580    8.6590   25.6530 H   0  0  0  0  0  0  0  0  0  0  0  0
    5.3860    9.6680   27.2080 H   0  0  0  0  0  0  0  0  0  0  0  0
    6.4890   13.5090   25.9820 H   0  0  0  0  0  0  0  0  0  0  0  0
   10.4560   11.7240   24.8470 H   0  0  0  0  0  0  0  0  0  0  0  0
   12.6080   12.8140   23.4400 H   0  0  0  0  0  0  0  0  0  0  0  0
   13.1350   14.4490   21.6530 H   0  0  0  0  0  0  0  0  0  0  0  0
   11.4090   15.7180   20.5670 H   0  0  0  0  0  0  0  0  0  0  0  0
    9.0300   15.4470   21.2120 H   0  0  0  0  0  0  0  0  0  0  0  0
    7.4060   13.9490   23.0430 H   0  0  0  0  0  0  0  0  0  0  0  0
  1  2  1  0
  2  3  2  0
  3  4  1  0
  4  5  2  0
  5  6  1  0
  6  7  2  0
  7  8  1  0
  8  9  2  0
  9 10  1  0
 10 11  2  0
 11 12  1  0
 12 13  2  0
 13 14  1  0
 14 15  2  0
 15 16  1  0
  7  2  1  0
 16  8  1  0
 15 10  1  0
  1 17  1  0
  1 18  1  0
  1 19  1  0
  3 20  1  0
  4 21  1  0
  6 22  1  0
  9 23  1  0
 11 24  1  0
 12 25  1  0
 13 26  1  0
 14 27  1  0
 16 28  1  0
A    1
 C1 
A    2
 C2 
A    3
 C3 
A    4
 C4 
A    5
 N1 
A    6
 C5 
A    7
 C6 
A    8
 C7 
A    9
 C8 
A   10
 C9 
A   11
 C10
A   12
 C11
A   13
 C12
A   14
 C13
A   15
 C14
A   16
 N2 
A   17
 H1 
A   18
 H2 
A   19
 H3 
A   20
 H4 
A   21
 H5 
A   22
 H6 
A   23
 H7 
A   24
 H8 
A   25
 H9 
A   26
 H10
A   27
 H11
A   28
 H12
M  END
>  <ref_pdb>  (47) 
x0554_0A

>  <ref_mols>  (47) 
x0451_0A,x0554_0A,x0556_0A,x0566_0A,x0310_0A,x0416_0A

>  <original SMILES>  (47) 
Cc1ccncc1-c1cc2ccccc2[nH]1

>  <rationale>  (47) 
info cluster #10 (rank 3); hbond:G127; hydroph_interaction:Y89; 

>  <cluster_rank>  (47) 
3

>  <N_interactions>  (47) 
2

>  <N_interactions_lost>  (47) 
0

>  <∆∆G>  (47) 
-7.13838

>  <comRMSD>  (47) 
0.975237

>  <N_rotatable_bonds>  (47) 
2

>  <N_unconstrained_atoms>  (47) 
0

>  <N_constrained_atoms>  (47) 
16

$$$$
PV_007104776556
     RDKit          3D

 29 31  0  0  0  0  0  0  0  0999 V2000
    9.5070    8.8680   23.8020 C   0  0  0  0  0  0  0  0  0  0  0  0
    9.1290   10.2660   24.1870 C   0  0  0  0  0  0  0  0  0  0  0  0
    8.0470   10.4700   24.9240 C   0  0  0  0  0  0  0  0  0  0  0  0
    7.6660   11.8040   25.2990 C   0  0  0  0  0  0  0  0  0  0  0  0
    6.5680   12.0370   26.0750 C   0  0  0  0  0  0  0  0  0  0  0  0
    6.1550   11.0970   27.0000 C   0  0  0  0  0  0  0  0  0  0  0  0
    5.0570   11.3840   27.7740 C   0  0  0  0  0  0  0  0  0  0  0  0
    4.3430   12.5720   27.6640 C   0  0  0  0  0  0  0  0  0  0  0  0
    3.2890   12.7840   28.4550 F   0  0  0  0  0  0  0  0  0  0  0  0
    4.6760   13.5280   26.7820 N   0  0  0  0  0  0  0  0  0  0  0  0
    5.7530   13.2640   26.0180 C   0  0  0  0  0  0  0  0  0  0  0  0
    8.3320   12.8670   24.9430 N   0  0  0  0  0  0  0  0  0  0  0  0
    9.4260   12.6760   24.2140 C   0  0  0  0  0  0  0  0  0  0  0  0
   10.1950   13.9240   23.8250 C   0  0  0  0  0  0  0  0  0  0  0  0
   11.3440   13.7110   23.0860 C   0  0  0  0  0  0  0  0  0  0  0  0
   11.7440   12.4420   22.7340 C   0  0  0  0  0  0  0  0  0  0  0  0
   11.0150   11.3060   23.0860 C   0  0  0  0  0  0  0  0  0  0  0  0
    9.8740   11.4020   23.8150 C   0  0  0  0  0  0  0  0  0  0  0  0
    9.2620    8.5170   22.8060 H   0  0  0  0  0  0  0  0  0  0  0  0
    9.0120    8.1680   24.4820 H   0  0  0  0  0  0  0  0  0  0  0  0
   10.5860    8.7400   23.9310 H   0  0  0  0  0  0  0  0  0  0  0  0
    7.4350    9.6530   25.2610 H   0  0  0  0  0  0  0  0  0  0  0  0
    6.6850   10.1540   27.1150 H   0  0  0  0  0  0  0  0  0  0  0  0
    4.7270   10.6460   28.5140 H   0  0  0  0  0  0  0  0  0  0  0  0
    5.9930   14.0720   25.3140 H   0  0  0  0  0  0  0  0  0  0  0  0
    9.8660   14.9180   24.1150 H   0  0  0  0  0  0  0  0  0  0  0  0
   11.9480   14.5600   22.7760 H   0  0  0  0  0  0  0  0  0  0  0  0
   12.6570   12.3200   22.1560 H   0  0  0  0  0  0  0  0  0  0  0  0
   11.3680   10.3340   22.7760 H   0  0  0  0  0  0  0  0  0  0  0  0
  1  2  1  0
  2  3  2  0
  3  4  1  0
  4  5  1  0
  5  6  2  0
  6  7  1  0
  7  8  2  0
  8  9  1  0
  8 10  1  0
 10 11  2  0
  4 12  2  0
 12 13  1  0
 13 14  2  0
 14 15  1  0
 15 16  2  0
 16 17  1  0
 17 18  2  0
 18  2  1  0
 11  5  1  0
 18 13  1  0
  1 19  1  0
  1 20  1  0
  1 21  1  0
  3 22  1  0
  6 23  1  0
  7 24  1  0
 11 25  1  0
 14 26  1  0
 15 27  1  0
 16 28  1  0
 17 29  1  0
A    1
 C1 
A    2
 C2 
A    3
 C3 
A    4
 C4 
A    5
 C5 
A    6
 C6 
A    7
 C7 
A    8
 C8 
A    9
 F1 
A   10
 N1 
A   11
 C9 
A   12
 N2 
A   13
 C10
A   14
 C11
A   15
 C12
A   16
 C13
A   17
 C14
A   18
 C15
A   19
 H1 
A   20
 H2 
A   21
 H3 
A   22
 H4 
A   23
 H5 
A   24
 H6 
A   25
 H7 
A   26
 H8 
A   27
 H9 
A   28
 H10
A   29
 H11
M  END
>  <ref_pdb>  (48) 
x0554_0A

>  <ref_mols>  (48) 
x0451_0A,x0554_0A,x0556_0A,x0566_0A,x0310_0A,x0416_0A

>  <original SMILES>  (48) 
Cc1cc(-c2ccc(F)nc2)nc2ccccc12

>  <rationale>  (48) 
info cluster #0 (rank 3); hydroph_interaction:D109; 

>  <cluster_rank>  (48) 
3

>  <N_interactions>  (48) 
1

>  <N_interactions_lost>  (48) 
0

>  <∆∆G>  (48) 
-6.871491

>  <comRMSD>  (48) 
0.517322

>  <N_rotatable_bonds>  (48) 
2

>  <N_unconstrained_atoms>  (48) 
0

>  <N_constrained_atoms>  (48) 
19

$$$$
Z51274218
     RDKit          3D

 28 29  0  0  0  0  0  0  0  0999 V2000
    5.5160   10.3970   26.4840 C   0  0  0  0  0  0  0  0  0  0  0  0
    6.1900    9.6370   25.5000 O   0  0  0  0  0  0  0  0  0  0  0  0
    7.4170   10.1240   25.1870 C   0  0  0  0  0  0  0  0  0  0  0  0
    7.5380   11.4750   25.4970 C   0  0  0  0  0  0  0  0  0  0  0  0
    8.7100   12.1510   25.2560 C   0  0  0  0  0  0  0  0  0  0  0  0
    9.7820   11.4880   24.6970 C   0  0  0  0  0  0  0  0  0  0  0  0
   10.9260   12.2410   24.4720 C   0  0  0  0  0  0  0  0  0  0  0  0
   11.9730   12.0370   25.0840 O   0  0  0  0  0  0  0  0  0  0  0  0
   10.8110   13.2380   23.5150 C   0  0  0  0  0  0  0  0  0  0  0  0
    9.5110   13.4220   22.9250 C   0  0  0  0  0  0  0  0  0  0  0  0
    9.3560   14.4730   21.9010 C   0  0  0  0  0  0  0  0  0  0  0  0
   10.4910   15.3070   21.4900 C   0  0  0  0  0  0  0  0  0  0  0  0
   10.2820   16.5160   20.2900 Cl  0  0  0  0  0  0  0  0  0  0  0  0
   11.7000   15.0290   22.1410 C   0  0  0  0  0  0  0  0  0  0  0  0
   11.8750   14.0460   23.1130 C   0  0  0  0  0  0  0  0  0  0  0  0
    9.6820   10.1240   24.3760 C   0  0  0  0  0  0  0  0  0  0  0  0
    8.4960    9.4460   24.6230 C   0  0  0  0  0  0  0  0  0  0  0  0
    6.2400   10.6850   27.2450 H   0  0  0  0  0  0  0  0  0  0  0  0
    5.0350   11.2780   26.0530 H   0  0  0  0  0  0  0  0  0  0  0  0
    4.7320    9.8080   26.9740 H   0  0  0  0  0  0  0  0  0  0  0  0
    6.7030   12.0190   25.9380 H   0  0  0  0  0  0  0  0  0  0  0  0
    8.7820   13.2060   25.5050 H   0  0  0  0  0  0  0  0  0  0  0  0
    8.6530   12.8190   23.2070 H   0  0  0  0  0  0  0  0  0  0  0  0
    8.3570   14.5700   21.4960 H   0  0  0  0  0  0  0  0  0  0  0  0
   12.5280   15.6660   21.8130 H   0  0  0  0  0  0  0  0  0  0  0  0
   12.8570   13.9080   23.5590 H   0  0  0  0  0  0  0  0  0  0  0  0
   10.5020    9.5790   23.9380 H   0  0  0  0  0  0  0  0  0  0  0  0
    8.4240    8.3920   24.3740 H   0  0  0  0  0  0  0  0  0  0  0  0
  1  2  1  0
  2  3  1  0
  3  4  2  0
  4  5  1  0
  5  6  2  0
  6  7  1  0
  7  8  2  0
  7  9  1  0
  9 10  2  0
 10 11  1  0
 11 12  2  0
 12 13  1  0
 12 14  1  0
 14 15  2  0
  6 16  1  0
 16 17  2  0
 17  3  1  0
 15  9  1  0
  1 18  1  0
  1 19  1  0
  1 20  1  0
  4 21  1  0
  5 22  1  0
 10 23  1  0
 11 24  1  0
 14 25  1  0
 15 26  1  0
 16 27  1  0
 17 28  1  0
A    1
 C1 
A    2
 O1 
A    3
 C2 
A    4
 C3 
A    5
 C4 
A    6
 C5 
A    7
 C6 
A    8
 O2 
A    9
 C7 
A   10
 C8 
A   11
 C9 
A   12
 C10
A   13
CL1 
A   14
 C11
A   15
 C12
A   16
 C13
A   17
 C14
A   18
 H1 
A   19
 H2 
A   20
 H3 
A   21
 H4 
A   22
 H5 
A   23
 H6 
A   24
 H7 
A   25
 H8 
A   26
 H9 
A   27
 H10
A   28
 H11
M  END
>  <ref_pdb>  (49) 
x0554_0A

>  <ref_mols>  (49) 
x0451_0A,x0554_0A,x0556_0A,x0566_0A,x0310_0A,x0416_0A

>  <original SMILES>  (49) 
COc1ccc(C(=O)c2ccc(Cl)cc2)cc1

>  <rationale>  (49) 
info cluster #9 (rank 3); hbond:G108; hydroph_interaction:Y89; 

>  <cluster_rank>  (49) 
3

>  <N_interactions>  (49) 
2

>  <N_interactions_lost>  (49) 
0

>  <∆∆G>  (49) 
-9.235765

>  <comRMSD>  (49) 
0.656248

>  <N_rotatable_bonds>  (49) 
4

>  <N_unconstrained_atoms>  (49) 
1

>  <N_constrained_atoms>  (49) 
16

$$$$
Z4918784517
     RDKit          3D

 27 29  0  0  0  0  0  0  0  0999 V2000
    8.8720    9.7100   24.2970 C   0  0  0  0  0  0  0  0  0  0  0  0
    7.8110   10.3650   25.1190 C   0  0  0  0  0  0  0  0  0  0  0  0
    6.9710    9.6210   25.8200 N   0  0  0  0  0  0  0  0  0  0  0  0
    6.0140   10.2880   26.5620 C   0  0  0  0  0  0  0  0  0  0  0  0
    5.9540   11.7320   26.5540 C   0  0  0  0  0  0  0  0  0  0  0  0
    6.8370   12.4690   25.8150 C   0  0  0  0  0  0  0  0  0  0  0  0
    7.7810   11.7610   25.0830 C   0  0  0  0  0  0  0  0  0  0  0  0
    8.7160   12.4000   24.3020 C   0  0  0  0  0  0  0  0  0  0  0  0
   10.0730   12.2460   24.2810 C   0  0  0  0  0  0  0  0  0  0  0  0
   10.5510   13.0990   23.3320 C   0  0  0  0  0  0  0  0  0  0  0  0
   11.9300   13.3850   22.8680 C   0  0  0  0  0  0  0  0  0  0  0  0
   12.0310   14.3180   21.8580 C   0  0  0  0  0  0  0  0  0  0  0  0
   10.8760   14.9090   21.3710 C   0  0  0  0  0  0  0  0  0  0  0  0
    9.5920   14.6750   21.7860 N   0  0  0  0  0  0  0  0  0  0  0  0
    9.5040   13.7640   22.7660 C   0  0  0  0  0  0  0  0  0  0  0  0
    8.3570   13.3180   23.3920 N   0  0  0  0  0  0  0  0  0  0  0  0
    8.8150    8.6220   24.3890 H   0  0  0  0  0  0  0  0  0  0  0  0
    8.7630    9.9650   23.2410 H   0  0  0  0  0  0  0  0  0  0  0  0
    9.8670   10.0130   24.6330 H   0  0  0  0  0  0  0  0  0  0  0  0
    5.3230    9.6910   27.1390 H   0  0  0  0  0  0  0  0  0  0  0  0
    5.1890   12.2250   27.1480 H   0  0  0  0  0  0  0  0  0  0  0  0
    6.7990   13.5540   25.7990 H   0  0  0  0  0  0  0  0  0  0  0  0
   10.6470   11.5760   24.9030 H   0  0  0  0  0  0  0  0  0  0  0  0
   12.8020   12.9020   23.2860 H   0  0  0  0  0  0  0  0  0  0  0  0
   12.9850   14.5990   21.4460 H   0  0  0  0  0  0  0  0  0  0  0  0
   10.9580   15.6440   20.5740 H   0  0  0  0  0  0  0  0  0  0  0  0
    7.4240   13.6420   23.1780 H   0  0  0  0  0  0  0  0  0  0  0  0
  1  2  1  0
  2  3  2  0
  3  4  1  0
  4  5  2  0
  5  6  1  0
  6  7  2  0
  7  8  1  0
  8  9  2  0
  9 10  1  0
 10 11  2  0
 11 12  1  0
 12 13  2  0
 13 14  1  0
 14 15  2  0
 15 16  1  0
  7  2  1  0
 16  8  1  0
 15 10  1  0
  1 17  1  0
  1 18  1  0
  1 19  1  0
  4 20  1  0
  5 21  1  0
  6 22  1  0
  9 23  1  0
 11 24  1  0
 12 25  1  0
 13 26  1  0
 16 27  1  0
A    1
 C1 
A    2
 C2 
A    3
 N1 
A    4
 C3 
A    5
 C4 
A    6
 C5 
A    7
 C6 
A    8
 C7 
A    9
 C8 
A   10
 C9 
A   11
 C10
A   12
 C11
A   13
 C12
A   14
 N2 
A   15
 C13
A   16
 N3 
A   17
 H1 
A   18
 H2 
A   19
 H3 
A   20
 H4 
A   21
 H5 
A   22
 H6 
A   23
 H7 
A   24
 H8 
A   25
 H9 
A   26
 H10
A   27
 H11
M  END
>  <ref_pdb>  (50) 
x0554_0A

>  <ref_mols>  (50) 
x0451_0A,x0554_0A,x0556_0A,x0566_0A,x0310_0A,x0416_0A

>  <original SMILES>  (50) 
Cc1ncccc1-c1cc2cccnc2[nH]1

>  <rationale>  (50) 
info cluster #1 (rank 3); hbond:G127; 

>  <cluster_rank>  (50) 
3

>  <N_interactions>  (50) 
1

>  <N_interactions_lost>  (50) 
0

>  <∆∆G>  (50) 
-6.80277

>  <comRMSD>  (50) 
0.982596

>  <N_rotatable_bonds>  (50) 
2

>  <N_unconstrained_atoms>  (50) 
0

>  <N_constrained_atoms>  (50) 
16

$$$$
PV_003657704990
     RDKit          3D

 26 28  0  0  0  0  0  0  0  0999 V2000
   12.6280   15.2610   22.1530 C   0  0  0  0  0  0  0  0  0  0  0  0
   11.5120   14.3690   22.4500 C   0  0  0  0  0  0  0  0  0  0  0  0
   11.4870   13.1210   23.0080 C   0  0  0  0  0  0  0  0  0  0  0  0
   10.1930   12.6900   23.0540 C   0  0  0  0  0  0  0  0  0  0  0  0
    9.6700   11.4690   23.5040 C   0  0  0  0  0  0  0  0  0  0  0  0
   10.2240   10.1980   22.9960 C   0  0  0  0  0  0  0  0  0  0  0  0
    9.8250    8.9660   23.2960 N   0  0  0  0  0  0  0  0  0  0  0  0
    8.7900    9.0310   24.1880 C   0  0  0  0  0  0  0  0  0  0  0  0
    8.1660   10.1360   24.7530 C   0  0  0  0  0  0  0  0  0  0  0  0
    7.1170    9.9590   25.6430 C   0  0  0  0  0  0  0  0  0  0  0  0
    6.4940   11.0610   26.2010 C   0  0  0  0  0  0  0  0  0  0  0  0
    6.9250   12.3340   25.8680 C   0  0  0  0  0  0  0  0  0  0  0  0
    7.9760   12.5040   24.9780 C   0  0  0  0  0  0  0  0  0  0  0  0
    8.6130   11.4060   24.4080 C   0  0  0  0  0  0  0  0  0  0  0  0
    9.4220   13.6890   22.5350 N   0  0  0  0  0  0  0  0  0  0  0  0
   10.2580   14.7320   22.1590 O   0  0  0  0  0  0  0  0  0  0  0  0
   12.9220   15.1510   21.1050 H   0  0  0  0  0  0  0  0  0  0  0  0
   13.4710   15.0240   22.7850 H   0  0  0  0  0  0  0  0  0  0  0  0
   12.3240   16.2870   22.3180 H   0  0  0  0  0  0  0  0  0  0  0  0
   12.3490   12.5530   23.3510 H   0  0  0  0  0  0  0  0  0  0  0  0
   11.0440   10.2060   22.2900 H   0  0  0  0  0  0  0  0  0  0  0  0
    8.4440    8.0380   24.4590 H   0  0  0  0  0  0  0  0  0  0  0  0
    6.7860    8.9760   25.8990 H   0  0  0  0  0  0  0  0  0  0  0  0
    5.6720   10.9270   26.8960 H   0  0  0  0  0  0  0  0  0  0  0  0
    6.4370   13.2030   26.3040 H   0  0  0  0  0  0  0  0  0  0  0  0
    8.2870   13.5170   24.7380 H   0  0  0  0  0  0  0  0  0  0  0  0
  1  2  1  0
  2  3  2  0
  3  4  1  0
  4  5  1  0
  5  6  2  0
  6  7  1  0
  7  8  2  0
  8  9  1  0
  9 10  2  0
 10 11  1  0
 11 12  2  0
 12 13  1  0
 13 14  2  0
  4 15  2  0
 15 16  1  0
 16  2  1  0
 14  5  1  0
 14  9  1  0
  1 17  1  0
  1 18  1  0
  1 19  1  0
  3 20  1  0
  6 21  1  0
  8 22  1  0
 10 23  1  0
 11 24  1  0
 12 25  1  0
 13 26  1  0
A    1
 C1 
A    2
 C2 
A    3
 C3 
A    4
 C4 
A    5
 C5 
A    6
 C6 
A    7
 N1 
A    8
 C7 
A    9
 C8 
A   10
 C9 
A   11
 C10
A   12
 C11
A   13
 C12
A   14
 C13
A   15
 N2 
A   16
 O1 
A   17
 H1 
A   18
 H2 
A   19
 H3 
A   20
 H4 
A   21
 H5 
A   22
 H6 
A   23
 H7 
A   24
 H8 
A   25
 H9 
A   26
 H10
M  END
>  <ref_pdb>  (51) 
x0554_0A

>  <ref_mols>  (51) 
x0451_0A,x0554_0A,x0556_0A,x0566_0A,x0310_0A,x0416_0A

>  <original SMILES>  (51) 
Cc1cc(-c2cncc3ccccc23)no1

>  <rationale>  (51) 
info cluster #6 (rank 3); hbond:C110; hydroph_interaction:Y89; 

>  <cluster_rank>  (51) 
3

>  <N_interactions>  (51) 
2

>  <N_interactions_lost>  (51) 
0

>  <∆∆G>  (51) 
-6.365018

>  <comRMSD>  (51) 
0.784112

>  <N_rotatable_bonds>  (51) 
2

>  <N_unconstrained_atoms>  (51) 
0

>  <N_constrained_atoms>  (51) 
16

$$$$
Z57101102
     RDKit          3D

 27 29  0  0  0  0  0  0  0  0999 V2000
    8.1700   13.8930   24.8130 O   0  0  0  0  0  0  0  0  0  0  0  0
    9.1410   13.4370   24.2510 C   0  0  0  0  0  0  0  0  0  0  0  0
    9.9920   12.2540   24.5280 C   0  0  0  0  0  0  0  0  0  0  0  0
    9.6160   11.1090   25.0530 C   0  0  0  0  0  0  0  0  0  0  0  0
    8.2670   10.9020   25.4940 C   0  0  0  0  0  0  0  0  0  0  0  0
    7.4540    9.8420   25.2010 C   0  0  0  0  0  0  0  0  0  0  0  0
    6.1620    9.8490   25.7530 C   0  0  0  0  0  0  0  0  0  0  0  0
    5.6960   10.8410   26.5450 C   0  0  0  0  0  0  0  0  0  0  0  0
    6.5060   11.8920   26.8290 C   0  0  0  0  0  0  0  0  0  0  0  0
    7.7800   11.9200   26.3060 C   0  0  0  0  0  0  0  0  0  0  0  0
   11.2830   12.5590   24.1350 O   0  0  0  0  0  0  0  0  0  0  0  0
   11.0670   13.3940   23.0740 C   0  0  0  0  0  0  0  0  0  0  0  0
   11.9590   13.6820   22.0940 C   0  0  0  0  0  0  0  0  0  0  0  0
   11.5690   14.5410   21.0730 C   0  0  0  0  0  0  0  0  0  0  0  0
   10.2770   15.0990   21.0620 C   0  0  0  0  0  0  0  0  0  0  0  0
    9.3690   14.8020   22.0790 C   0  0  0  0  0  0  0  0  0  0  0  0
    9.7970   13.9490   23.0670 C   0  0  0  0  0  0  0  0  0  0  0  0
   10.3210   10.2950   25.1940 H   0  0  0  0  0  0  0  0  0  0  0  0
    7.7940    9.0280   24.5690 H   0  0  0  0  0  0  0  0  0  0  0  0
    5.4810    9.0830   25.5820 H   0  0  0  0  0  0  0  0  0  0  0  0
    4.6870   10.7930   26.9450 H   0  0  0  0  0  0  0  0  0  0  0  0
    6.1520   12.7030   27.4630 H   0  0  0  0  0  0  0  0  0  0  0  0
    8.4150   12.7700   26.5460 H   0  0  0  0  0  0  0  0  0  0  0  0
   12.9360   13.2510   22.1130 H   0  0  0  0  0  0  0  0  0  0  0  0
   12.2720   14.7840   20.2730 H   0  0  0  0  0  0  0  0  0  0  0  0
    9.9890   15.7690   20.2540 H   0  0  0  0  0  0  0  0  0  0  0  0
    8.3690   15.2220   22.0950 H   0  0  0  0  0  0  0  0  0  0  0  0
  1  2  2  0
  2  3  1  0
  3  4  2  3
  4  5  1  0
  5  6  2  0
  6  7  1  0
  7  8  2  0
  8  9  1  0
  9 10  2  0
  3 11  1  0
 11 12  1  0
 12 13  2  0
 13 14  1  0
 14 15  2  0
 15 16  1  0
 16 17  2  0
 17  2  1  0
 10  5  1  0
 17 12  1  0
  4 18  1  0
  6 19  1  0
  7 20  1  0
  8 21  1  0
  9 22  1  0
 10 23  1  0
 13 24  1  0
 14 25  1  0
 15 26  1  0
 16 27  1  0
A    1
 O1 
A    2
 C1 
A    3
 C2 
A    4
 C3 
A    5
 C4 
A    6
 C5 
A    7
 C6 
A    8
 C7 
A    9
 C8 
A   10
 C9 
A   11
 O2 
A   12
 C10
A   13
 C11
A   14
 C12
A   15
 C13
A   16
 C14
A   17
 C15
A   18
 H1 
A   19
 H2 
A   20
 H3 
A   21
 H4 
A   22
 H5 
A   23
 H6 
A   24
 H7 
A   25
 H8 
A   26
 H9 
A   27
 H10
M  END
>  <ref_pdb>  (52) 
x0554_0A

>  <ref_mols>  (52) 
x0451_0A,x0554_0A,x0556_0A,x0566_0A,x0310_0A,x0416_0A

>  <original SMILES>  (52) 
O=C1C(=Cc2ccccc2)Oc2ccccc21

>  <rationale>  (52) 
info cluster #18 (rank 3); hydroph_interaction:P107; 

>  <cluster_rank>  (52) 
3

>  <N_interactions>  (52) 
1

>  <N_interactions_lost>  (52) 
0

>  <∆∆G>  (52) 
-5.645605

>  <comRMSD>  (52) 
0.756849

>  <N_rotatable_bonds>  (52) 
1

>  <N_unconstrained_atoms>  (52) 
0

>  <N_constrained_atoms>  (52) 
17

$$$$
PV_003145248213
     RDKit          3D

 26 28  0  0  0  0  0  0  0  0999 V2000
   14.4080   14.0160   21.2140 C   0  0  0  0  0  0  0  0  0  0  0  0
   15.4470   13.7020   22.2430 C   0  0  0  0  0  0  0  0  0  0  0  0
   15.1680   13.1510   23.4100 N   0  0  0  0  0  0  0  0  0  0  0  0
   13.8690   12.8910   23.6060 C   0  0  0  0  0  0  0  0  0  0  0  0
   12.8260   13.1470   22.7130 C   0  0  0  0  0  0  0  0  0  0  0  0
   11.6140   12.7780   23.1870 C   0  0  0  0  0  0  0  0  0  0  0  0
   10.8440   13.7330   23.7250 N   0  0  0  0  0  0  0  0  0  0  0  0
    9.6970   13.3300   24.2750 C   0  0  0  0  0  0  0  0  0  0  0  0
    9.3770   12.0420   24.2700 C   0  0  0  0  0  0  0  0  0  0  0  0
    8.1790   11.5780   24.9290 C   0  0  0  0  0  0  0  0  0  0  0  0
    7.0500   12.3090   25.3720 C   0  0  0  0  0  0  0  0  0  0  0  0
    6.1060   11.5490   25.9950 C   0  0  0  0  0  0  0  0  0  0  0  0
    6.4450   10.2120   26.0630 C   0  0  0  0  0  0  0  0  0  0  0  0
    7.9820    9.9470   25.3220 S   0  0  0  0  0  0  0  0  0  0  0  0
   10.1930   11.1350   23.6670 C   0  0  0  0  0  0  0  0  0  0  0  0
   11.3330   11.4840   23.1110 N   0  0  0  0  0  0  0  0  0  0  0  0
   13.1000   13.7240   21.4870 C   0  0  0  0  0  0  0  0  0  0  0  0
   14.7720   14.4650   20.2950 H   0  0  0  0  0  0  0  0  0  0  0  0
   16.5130   13.8930   22.1300 H   0  0  0  0  0  0  0  0  0  0  0  0
   13.7020   12.4420   24.5720 H   0  0  0  0  0  0  0  0  0  0  0  0
    9.0880   14.1130   24.7230 H   0  0  0  0  0  0  0  0  0  0  0  0
    6.9340   13.3770   25.2390 H   0  0  0  0  0  0  0  0  0  0  0  0
    5.1820   11.9420   26.3970 H   0  0  0  0  0  0  0  0  0  0  0  0
    5.8820    9.4010   26.4980 H   0  0  0  0  0  0  0  0  0  0  0  0
    9.9710   10.0680   23.6200 H   0  0  0  0  0  0  0  0  0  0  0  0
   12.3190   13.9380   20.7600 H   0  0  0  0  0  0  0  0  0  0  0  0
  1  2  2  0
  2  3  1  0
  3  4  2  0
  4  5  1  0
  5  6  1  0
  6  7  2  0
  7  8  1  0
  8  9  2  0
  9 10  1  0
 10 11  2  0
 11 12  1  0
 12 13  2  0
 13 14  1  0
  9 15  1  0
 15 16  2  0
  5 17  2  0
 17  1  1  0
 16  6  1  0
 14 10  1  0
  1 18  1  0
  2 19  1  0
  4 20  1  0
  8 21  1  0
 11 22  1  0
 12 23  1  0
 13 24  1  0
 15 25  1  0
 17 26  1  0
A    1
 C1 
A    2
 C2 
A    3
 N1 
A    4
 C3 
A    5
 C4 
A    6
 C5 
A    7
 N2 
A    8
 C6 
A    9
 C7 
A   10
 C8 
A   11
 C9 
A   12
 C10
A   13
 C11
A   14
 S1 
A   15
 C12
A   16
 N3 
A   17
 C13
A   18
 H1 
A   19
 H2 
A   20
 H3 
A   21
 H4 
A   22
 H5 
A   23
 H6 
A   24
 H7 
A   25
 H8 
A   26
 H9 
M  END
>  <ref_pdb>  (53) 
x0554_0A

>  <ref_mols>  (53) 
x0451_0A,x0554_0A,x0556_0A,x0566_0A,x0310_0A,x0416_0A

>  <original SMILES>  (53) 
c1cncc(-c2ncc(-c3cccs3)cn2)c1

>  <rationale>  (53) 
info cluster #7 (rank 3); hydroph_interaction:Y90+H21; pistack:Y89; 

>  <cluster_rank>  (53) 
3

>  <N_interactions>  (53) 
3

>  <N_interactions_lost>  (53) 
0

>  <∆∆G>  (53) 
-6.389418

>  <comRMSD>  (53) 
0.684255

>  <N_rotatable_bonds>  (53) 
2

>  <N_unconstrained_atoms>  (53) 
6

>  <N_constrained_atoms>  (53) 
13

$$$$
PV_003764772867
     RDKit          3D

 31 33  0  0  0  0  0  0  0  0999 V2000
    8.6040    7.4950   23.5420 C   0  0  0  0  0  0  0  0  0  0  0  0
    8.5820    8.9430   23.9240 C   0  0  0  0  0  0  0  0  0  0  0  0
    9.5940    9.6920   23.2970 C   0  0  0  0  0  0  0  0  0  0  0  0
    9.8190   10.9600   23.4270 N   0  0  0  0  0  0  0  0  0  0  0  0
    8.9420   11.5910   24.2680 C   0  0  0  0  0  0  0  0  0  0  0  0
    9.1430   13.0020   24.4340 C   0  0  0  0  0  0  0  0  0  0  0  0
   10.1480   13.6990   23.8050 C   0  0  0  0  0  0  0  0  0  0  0  0
   11.4290   13.1960   23.7950 C   0  0  0  0  0  0  0  0  0  0  0  0
   12.4420   13.8590   23.1680 C   0  0  0  0  0  0  0  0  0  0  0  0
   12.1660   15.1370   22.4820 C   0  0  0  0  0  0  0  0  0  0  0  0
   10.8740   15.6370   22.5080 C   0  0  0  0  0  0  0  0  0  0  0  0
    9.8830   14.9080   23.1760 C   0  0  0  0  0  0  0  0  0  0  0  0
    8.6030   15.3820   23.2210 O   0  0  0  0  0  0  0  0  0  0  0  0
    8.2970   13.7350   25.2590 C   0  0  0  0  0  0  0  0  0  0  0  0
    7.2620   13.1010   25.9250 C   0  0  0  0  0  0  0  0  0  0  0  0
    7.0570   11.7310   25.7800 C   0  0  0  0  0  0  0  0  0  0  0  0
    7.8740   10.9670   24.9670 C   0  0  0  0  0  0  0  0  0  0  0  0
    7.7280    9.6280   24.7770 C   0  0  0  0  0  0  0  0  0  0  0  0
    8.4600    6.8760   24.4230 H   0  0  0  0  0  0  0  0  0  0  0  0
    9.5740    7.2710   23.1060 H   0  0  0  0  0  0  0  0  0  0  0  0
    7.8350    7.2880   22.7950 H   0  0  0  0  0  0  0  0  0  0  0  0
   10.2340    9.1170   22.6400 H   0  0  0  0  0  0  0  0  0  0  0  0
   11.7120   12.2580   24.2760 H   0  0  0  0  0  0  0  0  0  0  0  0
   13.3990   13.3590   23.2360 H   0  0  0  0  0  0  0  0  0  0  0  0
   13.0160   15.6230   21.9890 H   0  0  0  0  0  0  0  0  0  0  0  0
   10.6210   16.5710   22.0240 H   0  0  0  0  0  0  0  0  0  0  0  0
    8.0320   14.6980   23.6100 H   0  0  0  0  0  0  0  0  0  0  0  0
    8.4430   14.8060   25.3860 H   0  0  0  0  0  0  0  0  0  0  0  0
    6.6110   13.6910   26.5640 H   0  0  0  0  0  0  0  0  0  0  0  0
    6.2330   11.2650   26.3200 H   0  0  0  0  0  0  0  0  0  0  0  0
    6.9290    9.1320   25.3050 H   0  0  0  0  0  0  0  0  0  0  0  0
  1  2  1  0
  2  3  2  0
  3  4  1  0
  4  5  2  0
  5  6  1  0
  6  7  1  0
  7  8  2  0
  8  9  1  0
  9 10  2  0
 10 11  1  0
 11 12  2  0
 12 13  1  0
  6 14  2  0
 14 15  1  0
 15 16  2  0
 16 17  1  0
 17 18  2  0
 18  2  1  0
 17  5  1  0
 12  7  1  0
  1 19  1  0
  1 20  1  0
  1 21  1  0
  3 22  1  0
  8 23  1  0
  9 24  1  0
 10 25  1  0
 11 26  1  0
 13 27  1  0
 14 28  1  0
 15 29  1  0
 16 30  1  0
 18 31  1  0
A    1
 C1 
A    2
 C2 
A    3
 C3 
A    4
 N1 
A    5
 C4 
A    6
 C5 
A    7
 C6 
A    8
 C7 
A    9
 C8 
A   10
 C9 
A   11
 C10
A   12
 C11
A   13
 O1 
A   14
 C12
A   15
 C13
A   16
 C14
A   17
 C15
A   18
 C16
A   19
 H1 
A   20
 H2 
A   21
 H3 
A   22
 H4 
A   23
 H5 
A   24
 H6 
A   25
 H7 
A   26
 H8 
A   27
 H9 
A   28
 H10
A   29
 H11
A   30
 H12
A   31
 H13
M  END
>  <ref_pdb>  (54) 
x0554_0A

>  <ref_mols>  (54) 
x0451_0A,x0554_0A,x0556_0A,x0566_0A,x0310_0A,x0416_0A

>  <original SMILES>  (54) 
Cc1cnc2c(-c3ccccc3O)cccc2c1

>  <rationale>  (54) 
info cluster #19 (rank 3); hbond:S87; hydroph_interaction:Y89+D109+V124; 

>  <cluster_rank>  (54) 
3

>  <N_interactions>  (54) 
5

>  <N_interactions_lost>  (54) 
0

>  <∆∆G>  (54) 
-7.495804

>  <comRMSD>  (54) 
0.704817

>  <N_rotatable_bonds>  (54) 
3

>  <N_unconstrained_atoms>  (54) 
0

>  <N_constrained_atoms>  (54) 
18

$$$$
Z56813486
     RDKit          3D

 28 30  0  0  0  0  0  0  0  0999 V2000
    7.7610   13.2330   26.5330 O   0  0  0  0  0  0  0  0  0  0  0  0
    7.5580   12.1080   26.1020 C   0  0  0  0  0  0  0  0  0  0  0  0
    6.5040   11.4760   26.6240 C   0  0  0  0  0  0  0  0  0  0  0  0
    5.6650   12.1150   27.7130 C   0  0  0  0  0  0  0  0  0  0  0  0
    4.5690   11.4370   28.2260 C   0  0  0  0  0  0  0  0  0  0  0  0
    4.3000   10.1960   27.6830 C   0  0  0  0  0  0  0  0  0  0  0  0
    5.0570    9.6270   26.7010 C   0  0  0  0  0  0  0  0  0  0  0  0
    6.1780   10.2300   26.1610 C   0  0  0  0  0  0  0  0  0  0  0  0
    6.9020    9.5400   25.2020 N   0  0  0  0  0  0  0  0  0  0  0  0
    8.0080   10.2240   24.7230 C   0  0  0  0  0  0  0  0  0  0  0  0
    8.9980    9.3870   23.5920 S   0  0  0  0  0  0  0  0  0  0  0  0
    8.3250   11.4860   25.1140 N   0  0  0  0  0  0  0  0  0  0  0  0
    8.9490   12.2760   24.2670 C   0  0  0  0  0  0  0  0  0  0  0  0
    8.1250   13.1610   23.5390 C   0  0  0  0  0  0  0  0  0  0  0  0
    8.7250   14.0170   22.6330 C   0  0  0  0  0  0  0  0  0  0  0  0
   10.2570   13.9850   22.4330 C   0  0  0  0  0  0  0  0  0  0  0  0
   10.9480   13.0750   23.2080 C   0  0  0  0  0  0  0  0  0  0  0  0
   10.3130   12.2370   24.1080 C   0  0  0  0  0  0  0  0  0  0  0  0
   11.0480   11.3840   24.8300 F   0  0  0  0  0  0  0  0  0  0  0  0
    5.9160   13.1000   28.0960 H   0  0  0  0  0  0  0  0  0  0  0  0
    3.9470   11.8640   29.0120 H   0  0  0  0  0  0  0  0  0  0  0  0
    3.4430    9.6420   28.0550 H   0  0  0  0  0  0  0  0  0  0  0  0
    4.7540    8.6880   26.3600 H   0  0  0  0  0  0  0  0  0  0  0  0
    8.0630    9.1810   22.6530 H   0  0  0  0  0  0  0  0  0  0  0  0
    7.0470   13.1840   23.6740 H   0  0  0  0  0  0  0  0  0  0  0  0
    8.1060   14.7120   22.0600 H   0  0  0  0  0  0  0  0  0  0  0  0
   10.7600   14.6410   21.7280 H   0  0  0  0  0  0  0  0  0  0  0  0
   12.0260   13.0140   23.1100 H   0  0  0  0  0  0  0  0  0  0  0  0
  1  2  2  0
  2  3  1  0
  3  4  2  0
  4  5  1  0
  5  6  2  0
  6  7  1  0
  7  8  2  0
  8  9  1  0
  9 10  2  0
 10 11  1  0
 10 12  1  0
 12 13  1  0
 13 14  2  0
 14 15  1  0
 15 16  2  0
 16 17  1  0
 17 18  2  0
 18 19  1  0
 12  2  1  0
  8  3  1  0
 18 13  1  0
  4 20  1  0
  5 21  1  0
  6 22  1  0
  7 23  1  0
 11 24  1  0
 14 25  1  0
 15 26  1  0
 16 27  1  0
 17 28  1  0
A    1
 O1 
A    2
 C1 
A    3
 C2 
A    4
 C3 
A    5
 C4 
A    6
 C5 
A    7
 C6 
A    8
 C7 
A    9
 N1 
A   10
 C8 
A   11
 S1 
A   12
 N2 
A   13
 C9 
A   14
 C10
A   15
 C11
A   16
 C12
A   17
 C13
A   18
 C14
A   19
 F1 
A   20
 H1 
A   21
 H2 
A   22
 H3 
A   23
 H4 
A   24
 H5 
A   25
 H6 
A   26
 H7 
A   27
 H8 
A   28
 H9 
M  END
>  <ref_pdb>  (55) 
x0554_0A

>  <ref_mols>  (55) 
x0451_0A,x0554_0A,x0556_0A,x0566_0A,x0310_0A,x0416_0A

>  <original SMILES>  (55) 
O=c1c2ccccc2nc(S)n1-c1ccccc1F

>  <rationale>  (55) 
info cluster #15 (rank 3); hbond:S105; 

>  <cluster_rank>  (55) 
3

>  <N_interactions>  (55) 
1

>  <N_interactions_lost>  (55) 
0

>  <∆∆G>  (55) 
-5.073786

>  <comRMSD>  (55) 
0.943089

>  <N_rotatable_bonds>  (55) 
1

>  <N_unconstrained_atoms>  (55) 
1

>  <N_constrained_atoms>  (55) 
18

$$$$
Z2205108400
     RDKit          3D

 25 27  0  0  0  0  0  0  0  0999 V2000
   10.3970    9.6770   23.0990 C   0  0  0  0  0  0  0  0  0  0  0  0
    9.7530   10.8710   23.7230 C   0  0  0  0  0  0  0  0  0  0  0  0
    8.6250   10.8110   24.4960 C   0  0  0  0  0  0  0  0  0  0  0  0
    8.1180    9.4940   24.6620 C   0  0  0  0  0  0  0  0  0  0  0  0
    8.6670    8.4360   24.0350 N   0  0  0  0  0  0  0  0  0  0  0  0
    8.0570   11.9420   25.0570 C   0  0  0  0  0  0  0  0  0  0  0  0
    6.9350   11.9170   25.8590 C   0  0  0  0  0  0  0  0  0  0  0  0
    6.5200   13.0640   26.5570 C   0  0  0  0  0  0  0  0  0  0  0  0
    5.1240   12.9320   27.5310 S   0  0  0  0  0  0  0  0  0  0  0  0
    4.9400   11.2900   27.0990 C   0  0  0  0  0  0  0  0  0  0  0  0
    6.0400   10.8400   26.1410 C   0  0  0  0  0  0  0  0  0  0  0  0
    8.5780   13.2550   24.8680 N   0  0  0  0  0  0  0  0  0  0  0  0
    9.6720   13.2660   24.1150 C   0  0  0  0  0  0  0  0  0  0  0  0
   10.3170   12.1780   23.5290 C   0  0  0  0  0  0  0  0  0  0  0  0
   11.4380   12.5730   22.8380 C   0  0  0  0  0  0  0  0  0  0  0  0
   11.6810   13.9280   22.8440 C   0  0  0  0  0  0  0  0  0  0  0  0
   10.4760   14.7370   23.7540 S   0  0  0  0  0  0  0  0  0  0  0  0
    9.6600    9.0390   22.6020 H   0  0  0  0  0  0  0  0  0  0  0  0
   11.1060    9.9880   22.3350 H   0  0  0  0  0  0  0  0  0  0  0  0
   10.9190    9.0720   23.8460 H   0  0  0  0  0  0  0  0  0  0  0  0
    7.0120   14.0270   26.5300 H   0  0  0  0  0  0  0  0  0  0  0  0
    4.1210   10.7040   27.4960 H   0  0  0  0  0  0  0  0  0  0  0  0
    6.1080    9.8350   25.7470 H   0  0  0  0  0  0  0  0  0  0  0  0
   12.0960   11.8960   22.3220 H   0  0  0  0  0  0  0  0  0  0  0  0
   12.4910   14.4700   22.3720 H   0  0  0  0  0  0  0  0  0  0  0  0
  1  2  1  0
  2  3  2  0
  3  4  1  0
  4  5  3  0
  3  6  1  0
  6  7  1  0
  7  8  2  0
  8  9  1  0
  9 10  1  0
 10 11  2  0
  6 12  2  0
 12 13  1  0
 13 14  2  0
 14 15  1  0
 15 16  2  0
 16 17  1  0
 14  2  1  0
 11  7  1  0
 17 13  1  0
  1 18  1  0
  1 19  1  0
  1 20  1  0
  8 21  1  0
 10 22  1  0
 11 23  1  0
 15 24  1  0
 16 25  1  0
A    1
 C1 
A    2
 C2 
A    3
 C3 
A    4
 C4 
A    5
 N1 
A    6
 C5 
A    7
 C6 
A    8
 C7 
A    9
 S1 
A   10
 C8 
A   11
 C9 
A   12
 N2 
A   13
 C10
A   14
 C11
A   15
 C12
A   16
 C13
A   17
 S2 
A   18
 H1 
A   19
 H2 
A   20
 H3 
A   21
 H4 
A   22
 H5 
A   23
 H6 
A   24
 H7 
A   25
 H8 
M  END
>  <ref_pdb>  (56) 
x0554_0A

>  <ref_mols>  (56) 
x0451_0A,x0554_0A,x0556_0A,x0566_0A,x0310_0A,x0416_0A

>  <original SMILES>  (56) 
Cc1c(C#N)c(-c2ccsc2)nc2sccc12

>  <rationale>  (56) 
info cluster #16 (rank 3); hbond:E106; 

>  <cluster_rank>  (56) 
3

>  <N_interactions>  (56) 
1

>  <N_interactions_lost>  (56) 
0

>  <∆∆G>  (56) 
-7.200419

>  <comRMSD>  (56) 
0.48838

>  <N_rotatable_bonds>  (56) 
2

>  <N_unconstrained_atoms>  (56) 
0

>  <N_constrained_atoms>  (56) 
17

$$$$
Z3231715928
     RDKit          3D

 35 37  0  0  0  0  0  0  0  0999 V2000
    7.3220   10.9050   25.2630 N   0  0  0  0  0  0  0  0  0  0  0  0
    8.4530   10.8380   24.5270 C   0  0  0  0  0  0  0  0  0  0  0  0
    9.0030    9.5720   24.1130 C   0  0  0  0  0  0  0  0  0  0  0  0
   10.1380    9.4840   23.3490 C   0  0  0  0  0  0  0  0  0  0  0  0
   10.7300   10.6760   22.9980 C   0  0  0  0  0  0  0  0  0  0  0  0
   10.2220   11.8700   23.3960 C   0  0  0  0  0  0  0  0  0  0  0  0
    9.0780   11.9970   24.1670 C   0  0  0  0  0  0  0  0  0  0  0  0
    8.5860   13.2500   24.5500 C   0  0  0  0  0  0  0  0  0  0  0  0
    9.3010   14.3850   23.9360 C   0  0  0  0  0  0  0  0  0  0  0  0
   10.6170   14.1490   23.9000 N   0  0  0  0  0  0  0  0  0  0  0  0
   11.3610   14.3730   25.1370 C   0  0  0  0  0  0  0  0  0  0  0  0
   11.0860   15.3610   26.0330 O   0  0  0  0  0  0  0  0  0  0  0  0
   12.4400   13.5080   25.3980 C   0  0  0  0  0  0  0  0  0  0  0  0
   13.2430   13.0470   24.3490 C   0  0  0  0  0  0  0  0  0  0  0  0
   14.3740   12.1480   24.6860 C   0  0  0  0  0  0  0  0  0  0  0  0
   14.7010   11.7290   25.9460 C   0  0  0  0  0  0  0  0  0  0  0  0
   13.8500   12.2330   26.9230 C   0  0  0  0  0  0  0  0  0  0  0  0
   12.7580   13.0840   26.7040 C   0  0  0  0  0  0  0  0  0  0  0  0
   10.9400   13.0960   22.9690 C   0  0  0  0  0  0  0  0  0  0  0  0
    7.3000   10.4550   26.1630 H   0  0  0  0  0  0  0  0  0  0  0  0
    6.4530   11.2180   24.8240 H   0  0  0  0  0  0  0  0  0  0  0  0
    8.5310    8.6430   24.3950 H   0  0  0  0  0  0  0  0  0  0  0  0
   10.5770    8.5500   23.0160 H   0  0  0  0  0  0  0  0  0  0  0  0
   11.5910   10.6930   22.4080 H   0  0  0  0  0  0  0  0  0  0  0  0
    7.5070   13.3430   24.6080 H   0  0  0  0  0  0  0  0  0  0  0  0
    8.9000   13.3100   25.6010 H   0  0  0  0  0  0  0  0  0  0  0  0
    8.9240   14.5710   22.9220 H   0  0  0  0  0  0  0  0  0  0  0  0
    9.1520   15.3140   24.4970 H   0  0  0  0  0  0  0  0  0  0  0  0
   13.0470   13.3420   23.3200 H   0  0  0  0  0  0  0  0  0  0  0  0
   14.9830   11.8080   23.8480 H   0  0  0  0  0  0  0  0  0  0  0  0
   15.5160   11.0710   26.2750 H   0  0  0  0  0  0  0  0  0  0  0  0
   14.0400   11.9460   27.9650 H   0  0  0  0  0  0  0  0  0  0  0  0
   12.1540   13.4230   27.5410 H   0  0  0  0  0  0  0  0  0  0  0  0
   12.0170   12.9200   22.9920 H   0  0  0  0  0  0  0  0  0  0  0  0
   10.6410   13.3510   21.9490 H   0  0  0  0  0  0  0  0  0  0  0  0
  1  2  1  0
  2  3  2  0
  3  4  1  0
  4  5  2  0
  5  6  1  0
  6  7  2  0
  7  8  1  0
  8  9  1  0
  9 10  1  0
 10 11  1  0
 11 12  2  0
 11 13  1  0
 13 14  2  0
 14 15  1  0
 15 16  2  0
 16 17  1  0
 17 18  2  0
 10 19  1  0
  7  2  1  0
 19  6  1  0
 18 13  1  0
  1 20  1  0
  1 21  1  0
  3 22  1  0
  4 23  1  0
  5 24  1  0
  8 25  1  0
  8 26  1  0
  9 27  1  0
  9 28  1  0
 14 29  1  0
 15 30  1  0
 16 31  1  0
 17 32  1  0
 18 33  1  0
 19 34  1  0
 19 35  1  0
A    1
 N1 
A    2
 C1 
A    3
 C2 
A    4
 C3 
A    5
 C4 
A    6
 C5 
A    7
 C6 
A    8
 C7 
A    9
 C8 
A   10
 N2 
A   11
 C9 
A   12
 O1 
A   13
 C10
A   14
 C11
A   15
 C12
A   16
 C13
A   17
 C14
A   18
 C15
A   19
 C16
A   20
 H1 
A   21
 H2 
A   22
 H3 
A   23
 H4 
A   24
 H5 
A   25
 H6 
A   26
 H7 
A   27
 H8 
A   28
 H9 
A   29
 H10
A   30
 H11
A   31
 H12
A   32
 H13
A   33
 H14
A   34
 H15
A   35
 H16
M  END
>  <ref_pdb>  (57) 
x0554_0A

>  <ref_mols>  (57) 
x0451_0A,x0554_0A,x0556_0A,x0566_0A,x0310_0A,x0416_0A

>  <original SMILES>  (57) 
Nc1cccc2c1CCN(C(=O)c1ccccc1)C2

>  <rationale>  (57) 
info cluster #4 (rank 3); hbond:S105; hydroph_interaction:Y89+P107; 

>  <cluster_rank>  (57) 
3

>  <N_interactions>  (57) 
3

>  <N_interactions_lost>  (57) 
0

>  <∆∆G>  (57) 
-7.327986

>  <comRMSD>  (57) 
0.945679

>  <N_rotatable_bonds>  (57) 
2

>  <N_unconstrained_atoms>  (57) 
9

>  <N_constrained_atoms>  (57) 
12

$$$$
Z2904731495
     RDKit          3D

 29 31  0  0  0  0  0  0  0  0999 V2000
    6.3070   10.2740   26.4680 C   0  0  0  0  0  0  0  0  0  0  0  0
    7.1800    9.6470   25.6930 C   0  0  0  0  0  0  0  0  0  0  0  0
    8.1080   10.3880   24.8670 C   0  0  0  0  0  0  0  0  0  0  0  0
    9.0420    9.5280   24.0360 C   0  0  0  0  0  0  0  0  0  0  0  0
    9.9780   10.3890   23.2140 C   0  0  0  0  0  0  0  0  0  0  0  0
    9.8200   11.7600   23.3580 C   0  0  0  0  0  0  0  0  0  0  0  0
   10.6980   12.6030   22.5680 N   0  0  0  0  0  0  0  0  0  0  0  0
   11.6960   13.4570   22.9640 C   0  0  0  0  0  0  0  0  0  0  0  0
   11.6100   14.0650   24.1900 C   0  0  0  0  0  0  0  0  0  0  0  0
   11.0040   15.2390   24.0510 N   0  0  0  0  0  0  0  0  0  0  0  0
   11.3840   15.7440   22.7240 O   0  0  0  0  0  0  0  0  0  0  0  0
   11.8550   14.6090   21.9960 C   0  0  0  0  0  0  0  0  0  0  0  0
    8.9570   12.4520   24.1190 N   0  0  0  0  0  0  0  0  0  0  0  0
    8.1080   11.7580   24.8700 C   0  0  0  0  0  0  0  0  0  0  0  0
    7.1780   12.4010   25.6970 C   0  0  0  0  0  0  0  0  0  0  0  0
    6.2810   11.6600   26.4920 C   0  0  0  0  0  0  0  0  0  0  0  0
    5.6150    9.6990   27.0830 H   0  0  0  0  0  0  0  0  0  0  0  0
    7.2270    8.6030   25.6590 H   0  0  0  0  0  0  0  0  0  0  0  0
    9.0380    8.4420   24.0330 H   0  0  0  0  0  0  0  0  0  0  0  0
   10.6960    9.8610   22.5710 H   0  0  0  0  0  0  0  0  0  0  0  0
   10.9460   12.0520   21.7500 H   0  0  0  0  0  0  0  0  0  0  0  0
   12.6230   12.8650   22.9300 H   0  0  0  0  0  0  0  0  0  0  0  0
   12.5080   14.2610   24.7430 H   0  0  0  0  0  0  0  0  0  0  0  0
   11.0170   13.4600   24.8830 H   0  0  0  0  0  0  0  0  0  0  0  0
   10.0000   15.0820   23.9400 H   0  0  0  0  0  0  0  0  0  0  0  0
   12.9010   14.7890   21.7460 H   0  0  0  0  0  0  0  0  0  0  0  0
   11.2970   14.5020   21.0600 H   0  0  0  0  0  0  0  0  0  0  0  0
    7.1520   13.4880   25.7230 H   0  0  0  0  0  0  0  0  0  0  0  0
    5.5490   12.1080   27.1440 H   0  0  0  0  0  0  0  0  0  0  0  0
  1  2  2  0
  2  3  1  0
  3  4  2  0
  4  5  1  0
  5  6  2  0
  6  7  1  0
  7  8  1  0
  8  9  1  0
  9 10  1  0
 10 11  1  0
 11 12  1  0
  6 13  1  0
 13 14  2  0
 14 15  1  0
 15 16  2  0
 16  1  1  0
 14  3  1  0
 12  8  1  0
  1 17  1  0
  2 18  1  0
  4 19  1  0
  5 20  1  0
  7 21  1  0
  8 22  1  0
  9 23  1  0
  9 24  1  0
 10 25  1  0
 12 26  1  0
 12 27  1  0
 15 28  1  0
 16 29  1  0
A    1
 C1 
A    2
 C2 
A    3
 C3 
A    4
 C4 
A    5
 C5 
A    6
 C6 
A    7
 N1 
A    8
 C7 
A    9
 C8 
A   10
 N2 
A   11
 O1 
A   12
 C9 
A   13
 N3 
A   14
 C10
A   15
 C11
A   16
 C12
A   17
 H1 
A   18
 H2 
A   19
 H3 
A   20
 H4 
A   21
 H5 
A   22
 H6 
A   23
 H7 
A   24
 H8 
A   25
 H9 
A   26
 H10
A   27
 H11
A   28
 H12
A   29
 H13
M  END
>  <ref_pdb>  (58) 
x0554_0A

>  <ref_mols>  (58) 
x0451_0A,x0554_0A,x0556_0A,x0566_0A,x0310_0A,x0416_0A

>  <original SMILES>  (58) 
c1ccc2nc(NC3CNOC3)ccc2c1

>  <rationale>  (58) 
info cluster #8 (rank 3); hbond:S125+S87; 

>  <cluster_rank>  (58) 
3

>  <N_interactions>  (58) 
2

>  <N_interactions_lost>  (58) 
0

>  <∆∆G>  (58) 
-6.286072

>  <comRMSD>  (58) 
0.710257

>  <N_rotatable_bonds>  (58) 
2

>  <N_unconstrained_atoms>  (58) 
0

>  <N_constrained_atoms>  (58) 
16

$$$$
Z3237297926
     RDKit          3D

 34 36  0  0  0  0  0  0  0  0999 V2000
    8.7600   13.4280   23.0340 C   0  0  0  0  0  0  0  0  0  0  0  0
   10.1700   13.7890   22.9990 C   0  0  0  0  0  0  0  0  0  0  0  0
   10.8940   13.4540   24.0430 C   0  0  0  0  0  0  0  0  0  0  0  0
   11.8290   14.4640   24.1830 C   0  0  0  0  0  0  0  0  0  0  0  0
   12.6990   14.1500   23.0350 C   0  0  0  0  0  0  0  0  0  0  0  0
   12.0890   14.0620   21.8170 N   0  0  0  0  0  0  0  0  0  0  0  0
   10.7630   14.4590   21.9410 C   0  0  0  0  0  0  0  0  0  0  0  0
    8.0850   12.7050   24.0600 C   0  0  0  0  0  0  0  0  0  0  0  0
    7.2190   13.4180   24.8690 C   0  0  0  0  0  0  0  0  0  0  0  0
    6.5170   12.7640   25.8650 C   0  0  0  0  0  0  0  0  0  0  0  0
    6.6930   11.4030   26.0160 C   0  0  0  0  0  0  0  0  0  0  0  0
    7.5580   10.7050   25.2050 C   0  0  0  0  0  0  0  0  0  0  0  0
    7.6880    9.3870   25.3780 C   0  0  0  0  0  0  0  0  0  0  0  0
    8.5590    8.6160   24.5910 C   0  0  0  0  0  0  0  0  0  0  0  0
    9.3350    9.1790   23.6060 C   0  0  0  0  0  0  0  0  0  0  0  0
    9.1750   10.5530   23.4480 C   0  0  0  0  0  0  0  0  0  0  0  0
    8.2950   11.3200   24.2170 C   0  0  0  0  0  0  0  0  0  0  0  0
    8.2020   13.7480   22.1700 H   0  0  0  0  0  0  0  0  0  0  0  0
   11.3380   12.4720   23.9730 H   0  0  0  0  0  0  0  0  0  0  0  0
   10.3010   13.2890   24.9380 H   0  0  0  0  0  0  0  0  0  0  0  0
   12.3550   14.4810   25.1260 H   0  0  0  0  0  0  0  0  0  0  0  0
   11.3840   15.4560   24.1810 H   0  0  0  0  0  0  0  0  0  0  0  0
   13.5150   14.8330   22.9340 H   0  0  0  0  0  0  0  0  0  0  0  0
   13.2100   13.2100   23.1580 H   0  0  0  0  0  0  0  0  0  0  0  0
   12.0820   13.1000   21.4500 H   0  0  0  0  0  0  0  0  0  0  0  0
   10.7380   15.5390   22.1230 H   0  0  0  0  0  0  0  0  0  0  0  0
   10.2360   14.2540   21.0030 H   0  0  0  0  0  0  0  0  0  0  0  0
    7.0830   14.4890   24.7260 H   0  0  0  0  0  0  0  0  0  0  0  0
    5.8340   13.3070   26.5110 H   0  0  0  0  0  0  0  0  0  0  0  0
    6.1610   10.8340   26.7710 H   0  0  0  0  0  0  0  0  0  0  0  0
    7.0990    8.9270   26.1440 H   0  0  0  0  0  0  0  0  0  0  0  0
    8.6280    7.5510   24.7670 H   0  0  0  0  0  0  0  0  0  0  0  0
   10.0220    8.5960   22.9940 H   0  0  0  0  0  0  0  0  0  0  0  0
    9.7720   11.0220   22.6880 H   0  0  0  0  0  0  0  0  0  0  0  0
  1  2  2  3
  2  3  1  0
  3  4  1  0
  4  5  1  0
  5  6  1  0
  6  7  1  0
  1  8  1  0
  8  9  2  0
  9 10  1  0
 10 11  2  0
 11 12  1  0
 12 13  2  0
 13 14  1  0
 14 15  2  0
 15 16  1  0
 16 17  2  0
  7  2  1  0
 17  8  1  0
 17 12  1  0
  1 18  1  0
  3 19  1  0
  3 20  1  0
  4 21  1  0
  4 22  1  0
  5 23  1  0
  5 24  1  0
  6 25  1  0
  7 26  1  0
  7 27  1  0
  9 28  1  0
 10 29  1  0
 11 30  1  0
 13 31  1  0
 14 32  1  0
 15 33  1  0
 16 34  1  0
A    1
 C1 
A    2
 C2 
A    3
 C3 
A    4
 C4 
A    5
 C5 
A    6
 N1 
A    7
 C6 
A    8
 C7 
A    9
 C8 
A   10
 C9 
A   11
 C10
A   12
 C11
A   13
 C12
A   14
 C13
A   15
 C14
A   16
 C15
A   17
 C16
A   18
 H1 
A   19
 H2 
A   20
 H3 
A   21
 H4 
A   22
 H5 
A   23
 H6 
A   24
 H7 
A   25
 H8 
A   26
 H9 
A   27
 H10
A   28
 H11
A   29
 H12
A   30
 H13
A   31
 H14
A   32
 H15
A   33
 H16
A   34
 H17
M  END
>  <ref_pdb>  (59) 
x0554_0A

>  <ref_mols>  (59) 
x0451_0A,x0554_0A,x0556_0A,x0566_0A,x0310_0A,x0416_0A

>  <original SMILES>  (59) 
C(=C1CCCNC1)c1cccc2ccccc12

>  <rationale>  (59) 
info cluster #5 (rank 3); hbond:H21; hydroph_interaction:Y89; 

>  <cluster_rank>  (59) 
3

>  <N_interactions>  (59) 
2

>  <N_interactions_lost>  (59) 
0

>  <∆∆G>  (59) 
-4.587302

>  <comRMSD>  (59) 
0.616153

>  <N_rotatable_bonds>  (59) 
1

>  <N_unconstrained_atoms>  (59) 
0

>  <N_constrained_atoms>  (59) 
17

$$$$
PV_003663727324
     RDKit          3D

 26 28  0  0  0  0  0  0  0  0999 V2000
    6.0490    9.9190   25.9770 C   0  0  0  0  0  0  0  0  0  0  0  0
    5.6380   10.9780   26.9670 C   0  0  0  0  0  0  0  0  0  0  0  0
    6.6200   12.1170   26.9860 C   0  0  0  0  0  0  0  0  0  0  0  0
    6.1980   13.1770   28.0080 C   0  0  0  0  0  0  0  0  0  0  0  0
    6.9900   14.3600   28.3440 C   0  0  0  0  0  0  0  0  0  0  0  0
    6.0970   15.2190   29.5380 S   0  0  0  0  0  0  0  0  0  0  0  0
    4.8160   14.0430   29.5240 C   0  0  0  0  0  0  0  0  0  0  0  0
    4.9470   12.9740   28.6720 N   0  0  0  0  0  0  0  0  0  0  0  0
    7.7480   12.1550   26.1760 C   0  0  0  0  0  0  0  0  0  0  0  0
    8.0450   11.1140   25.2860 C   0  0  0  0  0  0  0  0  0  0  0  0
    9.1840   11.2370   24.5320 C   0  0  0  0  0  0  0  0  0  0  0  0
   10.0290   10.1600   24.2360 C   0  0  0  0  0  0  0  0  0  0  0  0
   11.1530   10.3130   23.5100 N   0  0  0  0  0  0  0  0  0  0  0  0
   11.3960   11.5870   23.0920 C   0  0  0  0  0  0  0  0  0  0  0  0
   10.5620   12.6450   23.3710 C   0  0  0  0  0  0  0  0  0  0  0  0
    9.4480   12.4930   24.0920 N   0  0  0  0  0  0  0  0  0  0  0  0
    7.2020   10.0180   25.1970 C   0  0  0  0  0  0  0  0  0  0  0  0
    5.3720    9.0870   25.9340 H   0  0  0  0  0  0  0  0  0  0  0  0
    4.7390   10.8920   27.5790 H   0  0  0  0  0  0  0  0  0  0  0  0
    7.9460   14.7130   27.9810 H   0  0  0  0  0  0  0  0  0  0  0  0
    3.9530   14.1570   30.1640 H   0  0  0  0  0  0  0  0  0  0  0  0
    8.4160   13.0120   26.2440 H   0  0  0  0  0  0  0  0  0  0  0  0
    9.8340    9.1500   24.5750 H   0  0  0  0  0  0  0  0  0  0  0  0
   12.2990   11.7420   22.5100 H   0  0  0  0  0  0  0  0  0  0  0  0
   10.7760   13.6520   23.0200 H   0  0  0  0  0  0  0  0  0  0  0  0
    7.4510    9.2300   24.5090 H   0  0  0  0  0  0  0  0  0  0  0  0
  1  2  2  0
  2  3  1  0
  3  4  1  0
  4  5  2  0
  5  6  1  0
  6  7  1  0
  7  8  2  0
  3  9  2  0
  9 10  1  0
 10 11  1  0
 11 12  2  0
 12 13  1  0
 13 14  2  0
 14 15  1  0
 15 16  2  0
 10 17  2  0
 17  1  1  0
  8  4  1  0
 16 11  1  0
  1 18  1  0
  2 19  1  0
  5 20  1  0
  7 21  1  0
  9 22  1  0
 12 23  1  0
 14 24  1  0
 15 25  1  0
 17 26  1  0
A    1
 C1 
A    2
 C2 
A    3
 C3 
A    4
 C4 
A    5
 C5 
A    6
 S1 
A    7
 C6 
A    8
 N1 
A    9
 C7 
A   10
 C8 
A   11
 C9 
A   12
 C10
A   13
 N2 
A   14
 C11
A   15
 C12
A   16
 N3 
A   17
 C13
A   18
 H1 
A   19
 H2 
A   20
 H3 
A   21
 H4 
A   22
 H5 
A   23
 H6 
A   24
 H7 
A   25
 H8 
A   26
 H9 
M  END
>  <ref_pdb>  (60) 
x0554_0A

>  <ref_mols>  (60) 
x0451_0A,x0554_0A,x0556_0A,x0566_0A,x0310_0A,x0416_0A

>  <original SMILES>  (60) 
c1cc(-c2cnccn2)cc(-c2cscn2)c1

>  <rationale>  (60) 
info cluster #20 (rank 3); hbond:C110; hydroph_interaction:P107; 

>  <cluster_rank>  (60) 
3

>  <N_interactions>  (60) 
2

>  <N_interactions_lost>  (60) 
0

>  <∆∆G>  (60) 
-4.749352

>  <comRMSD>  (60) 
0.537186

>  <N_rotatable_bonds>  (60) 
2

>  <N_unconstrained_atoms>  (60) 
5

>  <N_constrained_atoms>  (60) 
13

$$$$
PV_002772291429
     RDKit          3D

 27 29  0  0  0  0  0  0  0  0999 V2000
    3.3600    9.1010   28.0270 C   0  0  0  0  0  0  0  0  0  0  0  0
    4.5270   10.0340   27.7660 C   0  0  0  0  0  0  0  0  0  0  0  0
    5.2430    9.8640   26.5030 C   0  0  0  0  0  0  0  0  0  0  0  0
    6.2500   10.7630   26.4380 C   0  0  0  0  0  0  0  0  0  0  0  0
    6.9840   10.6710   25.3270 N   0  0  0  0  0  0  0  0  0  0  0  0
    7.4940   11.6640   24.5980 C   0  0  0  0  0  0  0  0  0  0  0  0
    7.0590   12.7850   24.3860 O   0  0  0  0  0  0  0  0  0  0  0  0
    8.6770   11.2640   24.0860 C   0  0  0  0  0  0  0  0  0  0  0  0
    8.9970    9.9330   23.8510 C   0  0  0  0  0  0  0  0  0  0  0  0
   10.5660    9.7610   23.2210 S   0  0  0  0  0  0  0  0  0  0  0  0
   10.8060   11.4740   23.2710 C   0  0  0  0  0  0  0  0  0  0  0  0
   11.9230   12.3030   22.9080 C   0  0  0  0  0  0  0  0  0  0  0  0
   11.8840   13.6590   23.0280 C   0  0  0  0  0  0  0  0  0  0  0  0
   10.8000   14.2930   23.4930 N   0  0  0  0  0  0  0  0  0  0  0  0
    9.7280   13.5500   23.8500 C   0  0  0  0  0  0  0  0  0  0  0  0
    9.7040   12.1500   23.7520 C   0  0  0  0  0  0  0  0  0  0  0  0
    6.3830   11.6100   27.4840 N   0  0  0  0  0  0  0  0  0  0  0  0
    5.2330   11.2890   28.6430 S   0  0  0  0  0  0  0  0  0  0  0  0
    3.2110    8.4150   27.1840 H   0  0  0  0  0  0  0  0  0  0  0  0
    2.4260    9.6580   28.1460 H   0  0  0  0  0  0  0  0  0  0  0  0
    3.5250    8.5090   28.9320 H   0  0  0  0  0  0  0  0  0  0  0  0
    5.0000    9.1390   25.7650 H   0  0  0  0  0  0  0  0  0  0  0  0
    6.8890    9.7650   24.8820 H   0  0  0  0  0  0  0  0  0  0  0  0
    8.3860    9.0690   24.0230 H   0  0  0  0  0  0  0  0  0  0  0  0
   12.8280   11.8750   22.5250 H   0  0  0  0  0  0  0  0  0  0  0  0
   12.7280   14.2850   22.7530 H   0  0  0  0  0  0  0  0  0  0  0  0
    8.8830   14.1240   24.2220 H   0  0  0  0  0  0  0  0  0  0  0  0
  1  2  1  0
  2  3  2  0
  3  4  1  0
  4  5  1  0
  5  6  1  0
  6  7  2  0
  6  8  1  0
  8  9  2  0
  9 10  1  0
 10 11  1  0
 11 12  2  0
 12 13  1  0
 13 14  2  0
 14 15  1  0
 15 16  2  0
  4 17  2  0
 17 18  1  0
 18  2  1  0
 16  8  1  0
 16 11  1  0
  1 19  1  0
  1 20  1  0
  1 21  1  0
  3 22  1  0
  5 23  1  0
  9 24  1  0
 12 25  1  0
 13 26  1  0
 15 27  1  0
A    1
 C1 
A    2
 C2 
A    3
 C3 
A    4
 C4 
A    5
 N1 
A    6
 C5 
A    7
 O1 
A    8
 C6 
A    9
 C7 
A   10
 S1 
A   11
 C8 
A   12
 C9 
A   13
 C10
A   14
 N2 
A   15
 C11
A   16
 C12
A   17
 N3 
A   18
 S2 
A   19
 H1 
A   20
 H2 
A   21
 H3 
A   22
 H4 
A   23
 H5 
A   24
 H6 
A   25
 H7 
A   26
 H8 
A   27
 H9 
M  END
>  <ref_pdb>  (61) 
x0554_0A

>  <ref_mols>  (61) 
x0451_0A,x0554_0A,x0556_0A,x0566_0A,x0310_0A,x0416_0A

>  <original SMILES>  (61) 
Cc1cc(NC(=O)c2csc3ccncc23)ns1

>  <rationale>  (61) 
info cluster #12 (rank 3); hbond:G127+S105; 

>  <cluster_rank>  (61) 
3

>  <N_interactions>  (61) 
2

>  <N_interactions_lost>  (61) 
0

>  <∆∆G>  (61) 
-6.018877

>  <comRMSD>  (61) 
0.944516

>  <N_rotatable_bonds>  (61) 
3

>  <N_unconstrained_atoms>  (61) 
0

>  <N_constrained_atoms>  (61) 
18

$$$$
PV_002520074240
     RDKit          3D

 27 29  0  0  0  0  0  0  0  0999 V2000
    9.0290    7.8820   22.8640 N   0  0  0  0  0  0  0  0  0  0  0  0
    9.0840    8.8630   23.4810 C   0  0  0  0  0  0  0  0  0  0  0  0
    9.0050   10.0540   24.2080 C   0  0  0  0  0  0  0  0  0  0  0  0
    9.9880   11.0390   24.2600 C   0  0  0  0  0  0  0  0  0  0  0  0
   11.2210   11.1060   23.6730 C   0  0  0  0  0  0  0  0  0  0  0  0
   12.0930   10.3560   24.1010 O   0  0  0  0  0  0  0  0  0  0  0  0
   11.3910   12.0360   22.6960 N   0  0  0  0  0  0  0  0  0  0  0  0
   10.7820   13.2710   22.7110 C   0  0  0  0  0  0  0  0  0  0  0  0
    9.4950   13.5360   22.8600 N   0  0  0  0  0  0  0  0  0  0  0  0
    9.3350   14.9040   22.8020 N   0  0  0  0  0  0  0  0  0  0  0  0
   10.5270   15.4220   22.6210 C   0  0  0  0  0  0  0  0  0  0  0  0
   11.4530   14.4430   22.5600 N   0  0  0  0  0  0  0  0  0  0  0  0
    9.5480   12.0410   25.0570 N   0  0  0  0  0  0  0  0  0  0  0  0
    8.3190   11.7560   25.5460 C   0  0  0  0  0  0  0  0  0  0  0  0
    7.5380   12.5220   26.3970 C   0  0  0  0  0  0  0  0  0  0  0  0
    6.3150   11.9850   26.7510 C   0  0  0  0  0  0  0  0  0  0  0  0
    5.9260   10.7530   26.2670 C   0  0  0  0  0  0  0  0  0  0  0  0
    6.7370   10.0420   25.4240 C   0  0  0  0  0  0  0  0  0  0  0  0
    7.9480   10.5170   25.0400 C   0  0  0  0  0  0  0  0  0  0  0  0
   11.6610   11.8070   21.7640 H   0  0  0  0  0  0  0  0  0  0  0  0
   10.7690   16.4640   22.5290 H   0  0  0  0  0  0  0  0  0  0  0  0
   12.4540   14.5220   22.4260 H   0  0  0  0  0  0  0  0  0  0  0  0
   10.0780   12.8820   25.2570 H   0  0  0  0  0  0  0  0  0  0  0  0
    7.8410   13.4880   26.7800 H   0  0  0  0  0  0  0  0  0  0  0  0
    5.6410   12.5170   27.4130 H   0  0  0  0  0  0  0  0  0  0  0  0
    4.9630   10.3370   26.5540 H   0  0  0  0  0  0  0  0  0  0  0  0
    6.3910    9.1250   25.0890 H   0  0  0  0  0  0  0  0  0  0  0  0
  1  2  3  0
  2  3  1  0
  3  4  2  0
  4  5  1  0
  5  6  2  0
  5  7  1  0
  7  8  1  0
  8  9  2  0
  9 10  1  0
 10 11  2  0
 11 12  1  0
  4 13  1  0
 13 14  1  0
 14 15  2  0
 15 16  1  0
 16 17  2  0
 17 18  1  0
 18 19  2  0
 19  3  1  0
 12  8  1  0
 19 14  1  0
  7 20  1  0
 11 21  1  0
 12 22  1  0
 13 23  1  0
 15 24  1  0
 16 25  1  0
 17 26  1  0
 18 27  1  0
A    1
 N1 
A    2
 C1 
A    3
 C2 
A    4
 C3 
A    5
 C4 
A    6
 O1 
A    7
 N2 
A    8
 C5 
A    9
 N3 
A   10
 N4 
A   11
 C6 
A   12
 N5 
A   13
 N6 
A   14
 C7 
A   15
 C8 
A   16
 C9 
A   17
 C10
A   18
 C11
A   19
 C12
A   20
 H1 
A   21
 H2 
A   22
 H3 
A   23
 H4 
A   24
 H5 
A   25
 H6 
A   26
 H7 
A   27
 H8 
M  END
>  <ref_pdb>  (62) 
x0554_0A

>  <ref_mols>  (62) 
x0451_0A,x0554_0A,x0556_0A,x0566_0A,x0310_0A,x0416_0A

>  <original SMILES>  (62) 
N#Cc1c(C(=O)Nc2nnc[nH]2)[nH]c2ccccc12

>  <rationale>  (62) 
info cluster #17 (rank 3); hbond:S125+C110+G108+D109; hydroph_interaction:P107; 

>  <cluster_rank>  (62) 
3

>  <N_interactions>  (62) 
5

>  <N_interactions_lost>  (62) 
0

>  <∆∆G>  (62) 
-4.357189

>  <comRMSD>  (62) 
0.644215

>  <N_rotatable_bonds>  (62) 
2

>  <N_unconstrained_atoms>  (62) 
1

>  <N_constrained_atoms>  (62) 
18

$$$$
PV_002872510567
     RDKit          3D

 30 32  0  0  0  0  0  0  0  0999 V2000
    7.6110   15.2610   22.5600 C   0  0  0  0  0  0  0  0  0  0  0  0
    8.6540   14.2590   22.7160 C   0  0  0  0  0  0  0  0  0  0  0  0
    8.7600   13.0580   23.3830 C   0  0  0  0  0  0  0  0  0  0  0  0
   10.0080   12.3260   23.2930 C   0  0  0  0  0  0  0  0  0  0  0  0
   10.3140   11.0290   23.9100 C   0  0  0  0  0  0  0  0  0  0  0  0
   11.4700   10.7070   24.1480 O   0  0  0  0  0  0  0  0  0  0  0  0
    9.1310   10.2260   24.1440 N   0  0  0  0  0  0  0  0  0  0  0  0
    8.2090   10.6970   25.0680 C   0  0  0  0  0  0  0  0  0  0  0  0
    8.4280   11.9080   25.6080 N   0  0  0  0  0  0  0  0  0  0  0  0
    7.5180   12.3380   26.5080 C   0  0  0  0  0  0  0  0  0  0  0  0
    6.4130   11.5940   26.8770 C   0  0  0  0  0  0  0  0  0  0  0  0
    5.4760   12.0290   27.8190 C   0  0  0  0  0  0  0  0  0  0  0  0
    4.3850   11.2250   28.1480 C   0  0  0  0  0  0  0  0  0  0  0  0
    4.2400   10.0150   27.5320 C   0  0  0  0  0  0  0  0  0  0  0  0
    5.1850    9.6420   26.6100 C   0  0  0  0  0  0  0  0  0  0  0  0
    6.2770   10.3770   26.2600 C   0  0  0  0  0  0  0  0  0  0  0  0
    7.1560    9.9260   25.3690 N   0  0  0  0  0  0  0  0  0  0  0  0
   10.8770   13.0690   22.4990 C   0  0  0  0  0  0  0  0  0  0  0  0
   10.2340   14.5400   21.8830 S   0  0  0  0  0  0  0  0  0  0  0  0
    7.5060   16.0330   23.3300 H   0  0  0  0  0  0  0  0  0  0  0  0
    6.6350   14.7790   22.5050 H   0  0  0  0  0  0  0  0  0  0  0  0
    7.7720   15.7850   21.6140 H   0  0  0  0  0  0  0  0  0  0  0  0
    7.8680   12.7480   23.9330 H   0  0  0  0  0  0  0  0  0  0  0  0
    9.1560    9.2230   24.0880 H   0  0  0  0  0  0  0  0  0  0  0  0
    7.7060   13.3180   26.9390 H   0  0  0  0  0  0  0  0  0  0  0  0
    5.6030   12.9940   28.2980 H   0  0  0  0  0  0  0  0  0  0  0  0
    3.6580   11.5610   28.8840 H   0  0  0  0  0  0  0  0  0  0  0  0
    3.4030    9.3630   27.7590 H   0  0  0  0  0  0  0  0  0  0  0  0
    5.0610    8.7300   26.1410 H   0  0  0  0  0  0  0  0  0  0  0  0
   11.8970   12.8320   22.2190 H   0  0  0  0  0  0  0  0  0  0  0  0
  1  2  1  0
  2  3  2  0
  3  4  1  0
  4  5  1  0
  5  6  2  0
  5  7  1  0
  7  8  1  0
  8  9  2  0
  9 10  1  0
 10 11  2  0
 11 12  1  0
 12 13  2  0
 13 14  1  0
 14 15  2  0
 15 16  1  0
 16 17  2  0
  4 18  2  0
 18 19  1  0
 19  2  1  0
 17  8  1  0
 16 11  1  0
  1 20  1  0
  1 21  1  0
  1 22  1  0
  3 23  1  0
  7 24  1  0
 10 25  1  0
 12 26  1  0
 13 27  1  0
 14 28  1  0
 15 29  1  0
 18 30  1  0
A    1
 C1 
A    2
 C2 
A    3
 C3 
A    4
 C4 
A    5
 C5 
A    6
 O1 
A    7
 N1 
A    8
 C6 
A    9
 N2 
A   10
 C7 
A   11
 C8 
A   12
 C9 
A   13
 C10
A   14
 C11
A   15
 C12
A   16
 C13
A   17
 N3 
A   18
 C14
A   19
 S1 
A   20
 H1 
A   21
 H2 
A   22
 H3 
A   23
 H4 
A   24
 H5 
A   25
 H6 
A   26
 H7 
A   27
 H8 
A   28
 H9 
A   29
 H10
A   30
 H11
M  END
>  <ref_pdb>  (63) 
x0554_0A

>  <ref_mols>  (63) 
x0451_0A,x0554_0A,x0556_0A,x0566_0A,x0310_0A,x0416_0A

>  <original SMILES>  (63) 
Cc1cc(C(=O)Nc2ncc3ccccc3n2)cs1

>  <rationale>  (63) 
info cluster #3 (rank 3); hbond:C110+T126+G108; 

>  <cluster_rank>  (63) 
3

>  <N_interactions>  (63) 
3

>  <N_interactions_lost>  (63) 
0

>  <∆∆G>  (63) 
-3.961084

>  <comRMSD>  (63) 
0.930934

>  <N_rotatable_bonds>  (63) 
3

>  <N_unconstrained_atoms>  (63) 
1

>  <N_constrained_atoms>  (63) 
18

$$$$
Z5191179993
     RDKit          3D

 27 29  0  0  0  0  0  0  0  0999 V2000
    8.7760    9.7900   24.2430 C   0  0  0  0  0  0  0  0  0  0  0  0
    7.8210   10.4890   24.9860 C   0  0  0  0  0  0  0  0  0  0  0  0
    6.9310    9.7910   25.7570 C   0  0  0  0  0  0  0  0  0  0  0  0
    5.9600   10.4250   26.5130 C   0  0  0  0  0  0  0  0  0  0  0  0
    5.9540   11.8570   26.4390 C   0  0  0  0  0  0  0  0  0  0  0  0
    6.8110   12.5810   25.7010 N   0  0  0  0  0  0  0  0  0  0  0  0
    7.7360   11.8700   24.9810 C   0  0  0  0  0  0  0  0  0  0  0  0
    8.6850   12.5010   24.1860 C   0  0  0  0  0  0  0  0  0  0  0  0
   10.1040   12.3650   24.2200 C   0  0  0  0  0  0  0  0  0  0  0  0
   10.6130   13.1830   23.2700 C   0  0  0  0  0  0  0  0  0  0  0  0
   11.9070   13.4050   22.9370 C   0  0  0  0  0  0  0  0  0  0  0  0
   12.1280   14.3070   21.9080 C   0  0  0  0  0  0  0  0  0  0  0  0
   11.0870   14.9400   21.2630 C   0  0  0  0  0  0  0  0  0  0  0  0
    9.7620   14.7060   21.6190 C   0  0  0  0  0  0  0  0  0  0  0  0
    9.5620   13.8020   22.6510 C   0  0  0  0  0  0  0  0  0  0  0  0
    8.3630   13.3990   23.1890 O   0  0  0  0  0  0  0  0  0  0  0  0
    9.7580    9.6300   24.6840 H   0  0  0  0  0  0  0  0  0  0  0  0
    8.4000    8.7880   24.0180 H   0  0  0  0  0  0  0  0  0  0  0  0
    8.9460   10.3120   23.2990 H   0  0  0  0  0  0  0  0  0  0  0  0
    6.9950    8.7420   25.7680 H   0  0  0  0  0  0  0  0  0  0  0  0
    5.2530    9.8720   27.1220 H   0  0  0  0  0  0  0  0  0  0  0  0
    5.2280   12.4390   26.9990 H   0  0  0  0  0  0  0  0  0  0  0  0
   10.6610   11.7280   24.8890 H   0  0  0  0  0  0  0  0  0  0  0  0
   12.7340   12.9160   23.4400 H   0  0  0  0  0  0  0  0  0  0  0  0
   13.1250   14.5350   21.6000 H   0  0  0  0  0  0  0  0  0  0  0  0
   11.3070   15.6410   20.4590 H   0  0  0  0  0  0  0  0  0  0  0  0
    8.9310   15.1960   21.1270 H   0  0  0  0  0  0  0  0  0  0  0  0
  1  2  1  0
  2  3  2  0
  3  4  1  0
  4  5  2  0
  5  6  1  0
  6  7  2  0
  7  8  1  0
  8  9  2  0
  9 10  1  0
 10 11  2  0
 11 12  1  0
 12 13  2  0
 13 14  1  0
 14 15  2  0
 15 16  1  0
  7  2  1  0
 16  8  1  0
 15 10  1  0
  1 17  1  0
  1 18  1  0
  1 19  1  0
  3 20  1  0
  4 21  1  0
  5 22  1  0
  9 23  1  0
 11 24  1  0
 12 25  1  0
 13 26  1  0
 14 27  1  0
A    1
 C1 
A    2
 C2 
A    3
 C3 
A    4
 C4 
A    5
 C5 
A    6
 N1 
A    7
 C6 
A    8
 C7 
A    9
 C8 
A   10
 C9 
A   11
 C10
A   12
 C11
A   13
 C12
A   14
 C13
A   15
 C14
A   16
 O1 
A   17
 H1 
A   18
 H2 
A   19
 H3 
A   20
 H4 
A   21
 H5 
A   22
 H6 
A   23
 H7 
A   24
 H8 
A   25
 H9 
A   26
 H10
A   27
 H11
M  END
>  <ref_pdb>  (64) 
x0554_0A

>  <ref_mols>  (64) 
x0451_0A,x0554_0A,x0556_0A,x0566_0A,x0310_0A,x0416_0A

>  <original SMILES>  (64) 
Cc1cccnc1-c1cc2ccccc2o1

>  <rationale>  (64) 
info cluster #11 (rank 4); hydroph_interaction:Y89; 

>  <cluster_rank>  (64) 
4

>  <N_interactions>  (64) 
1

>  <N_interactions_lost>  (64) 
0

>  <∆∆G>  (64) 
-8.052011

>  <comRMSD>  (64) 
0.985599

>  <N_rotatable_bonds>  (64) 
2

>  <N_unconstrained_atoms>  (64) 
0

>  <N_constrained_atoms>  (64) 
16

$$$$
Z637725422
     RDKit          3D

 28 30  0  0  0  0  0  0  0  0999 V2000
    8.8930    8.5340   23.6730 C   0  0  0  0  0  0  0  0  0  0  0  0
    9.4920    9.9020   23.7270 C   0  0  0  0  0  0  0  0  0  0  0  0
    8.7110   10.9800   24.3290 N   0  0  0  0  0  0  0  0  0  0  0  0
    8.8980   12.3230   24.1090 C   0  0  0  0  0  0  0  0  0  0  0  0
    9.8090   12.9450   23.3170 C   0  0  0  0  0  0  0  0  0  0  0  0
   11.1410   12.8380   23.4990 C   0  0  0  0  0  0  0  0  0  0  0  0
   11.7690   13.5750   22.5680 C   0  0  0  0  0  0  0  0  0  0  0  0
   10.8380   14.1760   21.7700 C   0  0  0  0  0  0  0  0  0  0  0  0
   11.2190   15.4180   20.1930 I   0  0  0  0  0  0  0  0  0  0  0  0
    9.5910   13.7890   22.2270 O   0  0  0  0  0  0  0  0  0  0  0  0
    8.0730   13.0640   24.7770 N   0  0  0  0  0  0  0  0  0  0  0  0
    7.3040   12.2120   25.4680 C   0  0  0  0  0  0  0  0  0  0  0  0
    6.2730   12.5350   26.3320 C   0  0  0  0  0  0  0  0  0  0  0  0
    5.5140   11.4280   27.0170 C   0  0  0  0  0  0  0  0  0  0  0  0
    5.9350   10.1450   26.7090 C   0  0  0  0  0  0  0  0  0  0  0  0
    6.9900    9.8530   25.8300 C   0  0  0  0  0  0  0  0  0  0  0  0
    7.6570   10.8930   25.2220 C   0  0  0  0  0  0  0  0  0  0  0  0
    9.6140    7.8170   23.2660 H   0  0  0  0  0  0  0  0  0  0  0  0
    8.6270    8.1730   24.6700 H   0  0  0  0  0  0  0  0  0  0  0  0
    8.0230    8.5150   23.0290 H   0  0  0  0  0  0  0  0  0  0  0  0
   10.4360    9.8470   24.2800 H   0  0  0  0  0  0  0  0  0  0  0  0
    9.7760   10.1540   22.6990 H   0  0  0  0  0  0  0  0  0  0  0  0
   11.6280   12.2510   24.2760 H   0  0  0  0  0  0  0  0  0  0  0  0
   12.8440   13.6790   22.4680 H   0  0  0  0  0  0  0  0  0  0  0  0
    6.0190   13.5750   26.5050 H   0  0  0  0  0  0  0  0  0  0  0  0
    4.6940   11.6250   27.7020 H   0  0  0  0  0  0  0  0  0  0  0  0
    5.4110    9.3290   27.1790 H   0  0  0  0  0  0  0  0  0  0  0  0
    7.2740    8.8390   25.6340 H   0  0  0  0  0  0  0  0  0  0  0  0
  1  2  1  0
  2  3  1  0
  3  4  1  0
  4  5  1  0
  5  6  2  0
  6  7  1  0
  7  8  2  0
  8  9  1  0
  8 10  1  0
  4 11  2  0
 11 12  1  0
 12 13  2  0
 13 14  1  0
 14 15  2  0
 15 16  1  0
 16 17  2  0
 17  3  1  0
 10  5  1  0
 17 12  1  0
  1 18  1  0
  1 19  1  0
  1 20  1  0
  2 21  1  0
  2 22  1  0
  6 23  1  0
  7 24  1  0
 13 25  1  0
 14 26  1  0
 15 27  1  0
 16 28  1  0
A    1
 C1 
A    2
 C2 
A    3
 N1 
A    4
 C3 
A    5
 C4 
A    6
 C5 
A    7
 C6 
A    8
 C7 
A    9
 I1 
A   10
 O1 
A   11
 N2 
A   12
 C8 
A   13
 C9 
A   14
 C10
A   15
 C11
A   16
 C12
A   17
 C13
A   18
 H1 
A   19
 H2 
A   20
 H3 
A   21
 H4 
A   22
 H5 
A   23
 H6 
A   24
 H7 
A   25
 H8 
A   26
 H9 
A   27
 H10
A   28
 H11
M  END
>  <ref_pdb>  (65) 
x0554_0A

>  <ref_mols>  (65) 
x0451_0A,x0554_0A,x0556_0A,x0566_0A,x0310_0A,x0416_0A

>  <original SMILES>  (65) 
CCn1c(-c2ccc(I)o2)nc2ccccc21

>  <rationale>  (65) 
info cluster #13 (rank 4); 

>  <cluster_rank>  (65) 
4

>  <N_interactions>  (65) 
0

>  <N_interactions_lost>  (65) 
0

>  <∆∆G>  (65) 
-8.981657

>  <comRMSD>  (65) 
0.866573

>  <N_rotatable_bonds>  (65) 
3

>  <N_unconstrained_atoms>  (65) 
0

>  <N_constrained_atoms>  (65) 
17

$$$$
PV_002845919005
     RDKit          3D

 30 32  0  0  0  0  0  0  0  0999 V2000
   12.3660   15.4790   20.5470 C   0  0  0  0  0  0  0  0  0  0  0  0
   11.2710   15.2070   21.2800 C   0  0  0  0  0  0  0  0  0  0  0  0
   11.0780   13.9630   21.9390 C   0  0  0  0  0  0  0  0  0  0  0  0
    9.9800   13.6810   22.6360 C   0  0  0  0  0  0  0  0  0  0  0  0
    9.7320   12.3700   23.3180 C   0  0  0  0  0  0  0  0  0  0  0  0
   10.4930   11.2030   23.1470 C   0  0  0  0  0  0  0  0  0  0  0  0
   10.1470   10.0350   23.8040 C   0  0  0  0  0  0  0  0  0  0  0  0
    8.9630   10.0180   24.7100 C   0  0  0  0  0  0  0  0  0  0  0  0
    8.2440   11.2070   24.8630 C   0  0  0  0  0  0  0  0  0  0  0  0
    7.1420   11.3430   25.6780 C   0  0  0  0  0  0  0  0  0  0  0  0
    6.4900   10.2790   26.2700 C   0  0  0  0  0  0  0  0  0  0  0  0
    5.4860   10.8700   26.9730 N   0  0  0  0  0  0  0  0  0  0  0  0
    5.5050   12.2310   26.8330 N   0  0  0  0  0  0  0  0  0  0  0  0
    6.5510   12.5270   26.0150 N   0  0  0  0  0  0  0  0  0  0  0  0
    8.6360   12.3450   24.1680 C   0  0  0  0  0  0  0  0  0  0  0  0
    9.0040   14.6790   22.7040 C   0  0  0  0  0  0  0  0  0  0  0  0
    9.2400   15.8830   22.0520 C   0  0  0  0  0  0  0  0  0  0  0  0
   10.3370   16.1930   21.3470 N   0  0  0  0  0  0  0  0  0  0  0  0
   12.0740   16.0280   19.6590 H   0  0  0  0  0  0  0  0  0  0  0  0
   13.1000   16.0310   21.1370 H   0  0  0  0  0  0  0  0  0  0  0  0
   12.7910   14.5500   20.1890 H   0  0  0  0  0  0  0  0  0  0  0  0
   11.8550   13.2030   21.8650 H   0  0  0  0  0  0  0  0  0  0  0  0
   11.3710   11.1160   22.5120 H   0  0  0  0  0  0  0  0  0  0  0  0
   10.8080    9.1860   23.5890 H   0  0  0  0  0  0  0  0  0  0  0  0
    8.6910    9.1060   25.2250 H   0  0  0  0  0  0  0  0  0  0  0  0
    6.6370    9.2220   26.2610 H   0  0  0  0  0  0  0  0  0  0  0  0
    4.7710   10.4460   27.5530 H   0  0  0  0  0  0  0  0  0  0  0  0
    8.0530   13.2580   24.2970 H   0  0  0  0  0  0  0  0  0  0  0  0
    8.0770   14.5350   23.2470 H   0  0  0  0  0  0  0  0  0  0  0  0
    8.4370   16.6190   22.1420 H   0  0  0  0  0  0  0  0  0  0  0  0
  1  2  1  0
  2  3  2  0
  3  4  1  0
  4  5  1  0
  5  6  2  0
  6  7  1  0
  7  8  2  0
  8  9  1  0
  9 10  1  0
 10 11  2  0
 11 12  1  0
 12 13  1  0
 13 14  2  0
  9 15  2  0
  4 16  2  0
 16 17  1  0
 17 18  2  0
 18  2  1  0
 15  5  1  0
 14 10  1  0
  1 19  1  0
  1 20  1  0
  1 21  1  0
  3 22  1  0
  6 23  1  0
  7 24  1  0
  8 25  1  0
 11 26  1  0
 12 27  1  0
 15 28  1  0
 16 29  1  0
 17 30  1  0
A    1
 C1 
A    2
 C2 
A    3
 C3 
A    4
 C4 
A    5
 C5 
A    6
 C6 
A    7
 C7 
A    8
 C8 
A    9
 C9 
A   10
 C10
A   11
 C11
A   12
 N1 
A   13
 N2 
A   14
 N3 
A   15
 C12
A   16
 C13
A   17
 C14
A   18
 N4 
A   19
 H1 
A   20
 H2 
A   21
 H3 
A   22
 H4 
A   23
 H5 
A   24
 H6 
A   25
 H7 
A   26
 H8 
A   27
 H9 
A   28
 H10
A   29
 H11
A   30
 H12
M  END
>  <ref_pdb>  (66) 
x0554_0A

>  <ref_mols>  (66) 
x0451_0A,x0554_0A,x0556_0A,x0566_0A,x0310_0A,x0416_0A

>  <original SMILES>  (66) 
Cc1cc(-c2cccc(-c3c[nH]nn3)c2)ccn1

>  <rationale>  (66) 
info cluster #2 (rank 4); hbond:S87; hydroph_interaction:Y90+T126; 

>  <cluster_rank>  (66) 
4

>  <N_interactions>  (66) 
3

>  <N_interactions_lost>  (66) 
0

>  <∆∆G>  (66) 
-8.394467

>  <comRMSD>  (66) 
0.612071

>  <N_rotatable_bonds>  (66) 
3

>  <N_unconstrained_atoms>  (66) 
6

>  <N_constrained_atoms>  (66) 
13

$$$$
Z166830794
     RDKit          3D

 27 28  0  0  0  0  0  0  0  0999 V2000
    6.5150   10.6260   26.3310 C   0  0  0  0  0  0  0  0  0  0  0  0
    6.7320    9.5190   25.4790 O   0  0  0  0  0  0  0  0  0  0  0  0
    7.8750    9.6460   24.6930 C   0  0  0  0  0  0  0  0  0  0  0  0
    8.5810    8.5150   24.2290 C   0  0  0  0  0  0  0  0  0  0  0  0
    9.7010    8.6660   23.4320 C   0  0  0  0  0  0  0  0  0  0  0  0
   10.1380    9.9150   23.1000 C   0  0  0  0  0  0  0  0  0  0  0  0
    9.4650   11.0350   23.5590 C   0  0  0  0  0  0  0  0  0  0  0  0
    9.9130   12.2730   23.2280 N   0  0  0  0  0  0  0  0  0  0  0  0
    9.9840   13.3850   23.9740 C   0  0  0  0  0  0  0  0  0  0  0  0
    9.3910   13.6210   25.0170 O   0  0  0  0  0  0  0  0  0  0  0  0
   10.8710   14.2910   23.3330 C   0  0  0  0  0  0  0  0  0  0  0  0
   10.7200   15.6170   23.2600 C   0  0  0  0  0  0  0  0  0  0  0  0
   11.6940   16.2410   22.5840 O   0  0  0  0  0  0  0  0  0  0  0  0
   12.5200   15.2430   22.2010 C   0  0  0  0  0  0  0  0  0  0  0  0
   12.0830   14.0110   22.6270 C   0  0  0  0  0  0  0  0  0  0  0  0
    8.3230   10.9110   24.3580 C   0  0  0  0  0  0  0  0  0  0  0  0
    5.9970   10.2580   27.2120 H   0  0  0  0  0  0  0  0  0  0  0  0
    7.4660   11.0600   26.6570 H   0  0  0  0  0  0  0  0  0  0  0  0
    5.8770   11.3800   25.8590 H   0  0  0  0  0  0  0  0  0  0  0  0
    8.2680    7.5190   24.4820 H   0  0  0  0  0  0  0  0  0  0  0  0
   10.2370    7.7950   23.0710 H   0  0  0  0  0  0  0  0  0  0  0  0
   11.0180    9.9960   22.4770 H   0  0  0  0  0  0  0  0  0  0  0  0
   10.5180   12.2010   22.4030 H   0  0  0  0  0  0  0  0  0  0  0  0
    9.9300   16.1990   23.6660 H   0  0  0  0  0  0  0  0  0  0  0  0
   13.4030   15.4980   21.6250 H   0  0  0  0  0  0  0  0  0  0  0  0
   12.5090   13.0250   22.4880 H   0  0  0  0  0  0  0  0  0  0  0  0
    7.7790   11.7800   24.7190 H   0  0  0  0  0  0  0  0  0  0  0  0
  1  2  1  0
  2  3  1  0
  3  4  2  0
  4  5  1  0
  5  6  2  0
  6  7  1  0
  7  8  1  0
  8  9  1  0
  9 10  2  0
  9 11  1  0
 11 12  2  0
 12 13  1  0
 13 14  1  0
 14 15  2  0
  7 16  2  0
 16  3  1  0
 15 11  1  0
  1 17  1  0
  1 18  1  0
  1 19  1  0
  4 20  1  0
  5 21  1  0
  6 22  1  0
  8 23  1  0
 12 24  1  0
 14 25  1  0
 15 26  1  0
 16 27  1  0
A    1
 C1 
A    2
 O1 
A    3
 C2 
A    4
 C3 
A    5
 C4 
A    6
 C5 
A    7
 C6 
A    8
 N1 
A    9
 C7 
A   10
 O2 
A   11
 C8 
A   12
 C9 
A   13
 O3 
A   14
 C10
A   15
 C11
A   16
 C12
A   17
 H1 
A   18
 H2 
A   19
 H3 
A   20
 H4 
A   21
 H5 
A   22
 H6 
A   23
 H7 
A   24
 H8 
A   25
 H9 
A   26
 H10
A   27
 H11
M  END
>  <ref_pdb>  (67) 
x0554_0A

>  <ref_mols>  (67) 
x0451_0A,x0554_0A,x0556_0A,x0566_0A,x0310_0A,x0416_0A

>  <original SMILES>  (67) 
COc1cccc(NC(=O)c2ccoc2)c1

>  <rationale>  (67) 
info cluster #14 (rank 4); hbond:S125; hydroph_interaction:Y89+D109+V124; pistack:H21; 

>  <cluster_rank>  (67) 
4

>  <N_interactions>  (67) 
5

>  <N_interactions_lost>  (67) 
0

>  <∆∆G>  (67) 
-9.073666

>  <comRMSD>  (67) 
0.630367

>  <N_rotatable_bonds>  (67) 
4

>  <N_unconstrained_atoms>  (67) 
0

>  <N_constrained_atoms>  (67) 
16

$$$$
Z1838522895
     RDKit          3D

 28 29  0  0  0  0  0  0  0  0999 V2000
   11.9710   14.0180   21.5470 C   0  0  0  0  0  0  0  0  0  0  0  0
   11.0520   13.8120   22.6960 C   0  0  0  0  0  0  0  0  0  0  0  0
   11.5630   13.6620   24.0670 C   0  0  0  0  0  0  0  0  0  0  0  0
   10.7220   13.4840   25.1340 C   0  0  0  0  0  0  0  0  0  0  0  0
    9.3400   13.4400   24.9100 C   0  0  0  0  0  0  0  0  0  0  0  0
    8.5350   13.2700   26.0500 N   0  0  0  0  0  0  0  0  0  0  0  0
    7.3140   12.6880   26.1350 C   0  0  0  0  0  0  0  0  0  0  0  0
    6.0550   13.4010   27.0890 S   0  0  0  0  0  0  0  0  0  0  0  0
    7.1110   11.5710   25.4600 N   0  0  0  0  0  0  0  0  0  0  0  0
    8.0450   10.6890   24.9660 C   0  0  0  0  0  0  0  0  0  0  0  0
    7.7060    9.5900   24.3020 C   0  0  0  0  0  0  0  0  0  0  0  0
    8.9310    8.5660   23.7190 S   0  0  0  0  0  0  0  0  0  0  0  0
   10.0470    9.6440   24.4060 C   0  0  0  0  0  0  0  0  0  0  0  0
    9.4510   10.7550   25.0470 C   0  0  0  0  0  0  0  0  0  0  0  0
    8.8290   13.5690   23.6070 C   0  0  0  0  0  0  0  0  0  0  0  0
    9.6810   13.7590   22.5150 C   0  0  0  0  0  0  0  0  0  0  0  0
   12.5440   14.9430   21.6760 H   0  0  0  0  0  0  0  0  0  0  0  0
   12.6610   13.1870   21.4770 H   0  0  0  0  0  0  0  0  0  0  0  0
   11.4200   14.0670   20.6020 H   0  0  0  0  0  0  0  0  0  0  0  0
   12.6360   13.6950   24.2460 H   0  0  0  0  0  0  0  0  0  0  0  0
   11.1430   13.3830   26.1290 H   0  0  0  0  0  0  0  0  0  0  0  0
    8.9070   13.7370   26.8680 H   0  0  0  0  0  0  0  0  0  0  0  0
    6.2940   11.6520   24.8440 H   0  0  0  0  0  0  0  0  0  0  0  0
    6.6800    9.4090   24.1700 H   0  0  0  0  0  0  0  0  0  0  0  0
   11.1140    9.4880   24.3570 H   0  0  0  0  0  0  0  0  0  0  0  0
   10.0200   11.5360   25.5300 H   0  0  0  0  0  0  0  0  0  0  0  0
    7.7610   13.5340   23.4070 H   0  0  0  0  0  0  0  0  0  0  0  0
    9.2550   13.8660   21.5230 H   0  0  0  0  0  0  0  0  0  0  0  0
  1  2  1  0
  2  3  2  0
  3  4  1  0
  4  5  2  0
  5  6  1  0
  6  7  1  0
  7  8  2  0
  7  9  1  0
  9 10  1  0
 10 11  2  0
 11 12  1  0
 12 13  1  0
 13 14  2  0
  5 15  1  0
 15 16  2  0
 16  2  1  0
 14 10  1  0
  1 17  1  0
  1 18  1  0
  1 19  1  0
  3 20  1  0
  4 21  1  0
  6 22  1  0
  9 23  1  0
 11 24  1  0
 13 25  1  0
 14 26  1  0
 15 27  1  0
 16 28  1  0
A    1
 C1 
A    2
 C2 
A    3
 C3 
A    4
 C4 
A    5
 C5 
A    6
 N1 
A    7
 C6 
A    8
 S1 
A    9
 N2 
A   10
 C7 
A   11
 C8 
A   12
 S2 
A   13
 C9 
A   14
 C10
A   15
 C11
A   16
 C12
A   17
 H1 
A   18
 H2 
A   19
 H3 
A   20
 H4 
A   21
 H5 
A   22
 H6 
A   23
 H7 
A   24
 H8 
A   25
 H9 
A   26
 H10
A   27
 H11
A   28
 H12
M  END
>  <ref_pdb>  (68) 
x0554_0A

>  <ref_mols>  (68) 
x0451_0A,x0554_0A,x0556_0A,x0566_0A,x0310_0A,x0416_0A

>  <original SMILES>  (68) 
Cc1ccc(NC(=S)Nc2ccsc2)cc1

>  <rationale>  (68) 
info cluster #10 (rank 4); hbond:G127; hydroph_interaction:Y89; 

>  <cluster_rank>  (68) 
4

>  <N_interactions>  (68) 
2

>  <N_interactions_lost>  (68) 
0

>  <∆∆G>  (68) 
-8.2927

>  <comRMSD>  (68) 
0.754297

>  <N_rotatable_bonds>  (68) 
3

>  <N_unconstrained_atoms>  (68) 
0

>  <N_constrained_atoms>  (68) 
16

$$$$
PV_004482002974
     RDKit          3D

 29 31  0  0  0  0  0  0  0  0999 V2000
    9.7000    9.0150   23.8260 C   0  0  0  0  0  0  0  0  0  0  0  0
    9.2740   10.2920   24.1800 C   0  0  0  0  0  0  0  0  0  0  0  0
    8.1300   10.4590   24.9430 C   0  0  0  0  0  0  0  0  0  0  0  0
    7.6990   11.7340   25.2940 C   0  0  0  0  0  0  0  0  0  0  0  0
    6.5370   11.9650   26.1030 C   0  0  0  0  0  0  0  0  0  0  0  0
    6.0960   11.0630   27.0410 C   0  0  0  0  0  0  0  0  0  0  0  0
    4.9860   11.3320   27.8230 C   0  0  0  0  0  0  0  0  0  0  0  0
    4.2760   12.5070   27.6910 C   0  0  0  0  0  0  0  0  0  0  0  0
    3.2140   12.7340   28.4680 F   0  0  0  0  0  0  0  0  0  0  0  0
    4.6410   13.4850   26.7500 N   0  0  0  0  0  0  0  0  0  0  0  0
    5.7310   13.1980   26.0030 C   0  0  0  0  0  0  0  0  0  0  0  0
    8.4090   12.8340   24.8710 C   0  0  0  0  0  0  0  0  0  0  0  0
    9.5360   12.6950   24.1310 C   0  0  0  0  0  0  0  0  0  0  0  0
   10.2370   13.8340   23.7310 C   0  0  0  0  0  0  0  0  0  0  0  0
   11.3990   13.7570   22.9990 C   0  0  0  0  0  0  0  0  0  0  0  0
   11.7720   12.4480   22.7180 C   0  0  0  0  0  0  0  0  0  0  0  0
   11.1120   11.3150   23.0740 N   0  0  0  0  0  0  0  0  0  0  0  0
    9.9970   11.4210   23.7770 C   0  0  0  0  0  0  0  0  0  0  0  0
    9.0690    8.2490   24.2900 H   0  0  0  0  0  0  0  0  0  0  0  0
    9.6490    8.8740   22.7400 H   0  0  0  0  0  0  0  0  0  0  0  0
   10.7350    8.8220   24.1250 H   0  0  0  0  0  0  0  0  0  0  0  0
    7.5730    9.5980   25.2750 H   0  0  0  0  0  0  0  0  0  0  0  0
    6.6920   10.1490   27.1030 H   0  0  0  0  0  0  0  0  0  0  0  0
    4.6660   10.5940   28.5650 H   0  0  0  0  0  0  0  0  0  0  0  0
    5.9940   13.9820   25.2840 H   0  0  0  0  0  0  0  0  0  0  0  0
    8.0660   13.8310   25.1420 H   0  0  0  0  0  0  0  0  0  0  0  0
    9.8560   14.8150   24.0130 H   0  0  0  0  0  0  0  0  0  0  0  0
   11.9700   14.6270   22.6770 H   0  0  0  0  0  0  0  0  0  0  0  0
   12.6810   12.2770   22.1480 H   0  0  0  0  0  0  0  0  0  0  0  0
  1  2  1  0
  2  3  2  0
  3  4  1  0
  4  5  1  0
  5  6  2  0
  6  7  1  0
  7  8  2  0
  8  9  1  0
  8 10  1  0
 10 11  2  0
  4 12  2  0
 12 13  1  0
 13 14  2  0
 14 15  1  0
 15 16  2  0
 16 17  1  0
 17 18  2  0
 18  2  1  0
 11  5  1  0
 18 13  1  0
  1 19  1  0
  1 20  1  0
  1 21  1  0
  3 22  1  0
  6 23  1  0
  7 24  1  0
 11 25  1  0
 12 26  1  0
 14 27  1  0
 15 28  1  0
 16 29  1  0
A    1
 C1 
A    2
 C2 
A    3
 C3 
A    4
 C4 
A    5
 C5 
A    6
 C6 
A    7
 C7 
A    8
 C8 
A    9
 F1 
A   10
 N1 
A   11
 C9 
A   12
 C10
A   13
 C11
A   14
 C12
A   15
 C13
A   16
 C14
A   17
 N2 
A   18
 C15
A   19
 H1 
A   20
 H2 
A   21
 H3 
A   22
 H4 
A   23
 H5 
A   24
 H6 
A   25
 H7 
A   26
 H8 
A   27
 H9 
A   28
 H10
A   29
 H11
M  END
>  <ref_pdb>  (69) 
x0554_0A

>  <ref_mols>  (69) 
x0451_0A,x0554_0A,x0556_0A,x0566_0A,x0310_0A,x0416_0A

>  <original SMILES>  (69) 
Cc1cc(-c2ccc(F)nc2)cc2cccnc12

>  <rationale>  (69) 
info cluster #0 (rank 4); hydroph_interaction:D109; 

>  <cluster_rank>  (69) 
4

>  <N_interactions>  (69) 
1

>  <N_interactions_lost>  (69) 
0

>  <∆∆G>  (69) 
-6.5726

>  <comRMSD>  (69) 
0.576025

>  <N_rotatable_bonds>  (69) 
2

>  <N_unconstrained_atoms>  (69) 
0

>  <N_constrained_atoms>  (69) 
19

$$$$
Z1430367994
     RDKit          3D

 28 29  0  0  0  0  0  0  0  0999 V2000
   11.9220   14.0380   21.5290 C   0  0  0  0  0  0  0  0  0  0  0  0
   10.9940   13.7880   22.7130 C   0  0  0  0  0  0  0  0  0  0  0  0
   11.5170   13.6140   24.0750 C   0  0  0  0  0  0  0  0  0  0  0  0
   10.6890   13.3990   25.1440 C   0  0  0  0  0  0  0  0  0  0  0  0
    9.3270   13.3360   24.9550 C   0  0  0  0  0  0  0  0  0  0  0  0
    8.5690   13.1240   26.1230 N   0  0  0  0  0  0  0  0  0  0  0  0
    7.2490   12.7130   26.1950 C   0  0  0  0  0  0  0  0  0  0  0  0
    6.3630   13.2390   26.8670 O   0  0  0  0  0  0  0  0  0  0  0  0
    7.0610   11.6210   25.3980 N   0  0  0  0  0  0  0  0  0  0  0  0
    8.0230   10.7350   24.9480 C   0  0  0  0  0  0  0  0  0  0  0  0
    7.7310    9.6150   24.3040 C   0  0  0  0  0  0  0  0  0  0  0  0
    8.9170    8.5420   23.7390 S   0  0  0  0  0  0  0  0  0  0  0  0
   10.0370    9.6480   24.4250 C   0  0  0  0  0  0  0  0  0  0  0  0
    9.4250   10.7790   25.0380 C   0  0  0  0  0  0  0  0  0  0  0  0
    8.7900   13.4870   23.6710 C   0  0  0  0  0  0  0  0  0  0  0  0
    9.6240   13.7160   22.5700 C   0  0  0  0  0  0  0  0  0  0  0  0
   12.4930   14.9660   21.6500 H   0  0  0  0  0  0  0  0  0  0  0  0
   12.6320   13.2260   21.4300 H   0  0  0  0  0  0  0  0  0  0  0  0
   11.3670   14.1060   20.5880 H   0  0  0  0  0  0  0  0  0  0  0  0
   12.5900   13.6590   24.2480 H   0  0  0  0  0  0  0  0  0  0  0  0
   11.1150   13.2810   26.1380 H   0  0  0  0  0  0  0  0  0  0  0  0
    8.9490   13.6050   26.9290 H   0  0  0  0  0  0  0  0  0  0  0  0
    6.2580   11.6710   24.7770 H   0  0  0  0  0  0  0  0  0  0  0  0
    6.7040    9.4310   24.1640 H   0  0  0  0  0  0  0  0  0  0  0  0
   11.1090    9.5140   24.4050 H   0  0  0  0  0  0  0  0  0  0  0  0
   10.0180   11.5550   25.5070 H   0  0  0  0  0  0  0  0  0  0  0  0
    7.7130   13.4360   23.5120 H   0  0  0  0  0  0  0  0  0  0  0  0
    9.1810   13.8420   21.5880 H   0  0  0  0  0  0  0  0  0  0  0  0
  1  2  1  0
  2  3  2  0
  3  4  1  0
  4  5  2  0
  5  6  1  0
  6  7  1  0
  7  8  2  0
  7  9  1  0
  9 10  1  0
 10 11  2  0
 11 12  1  0
 12 13  1  0
 13 14  2  0
  5 15  1  0
 15 16  2  0
 16  2  1  0
 14 10  1  0
  1 17  1  0
  1 18  1  0
  1 19  1  0
  3 20  1  0
  4 21  1  0
  6 22  1  0
  9 23  1  0
 11 24  1  0
 13 25  1  0
 14 26  1  0
 15 27  1  0
 16 28  1  0
A    1
 C1 
A    2
 C2 
A    3
 C3 
A    4
 C4 
A    5
 C5 
A    6
 N1 
A    7
 C6 
A    8
 O1 
A    9
 N2 
A   10
 C7 
A   11
 C8 
A   12
 S1 
A   13
 C9 
A   14
 C10
A   15
 C11
A   16
 C12
A   17
 H1 
A   18
 H2 
A   19
 H3 
A   20
 H4 
A   21
 H5 
A   22
 H6 
A   23
 H7 
A   24
 H8 
A   25
 H9 
A   26
 H10
A   27
 H11
A   28
 H12
M  END
>  <ref_pdb>  (70) 
x0554_0A

>  <ref_mols>  (70) 
x0451_0A,x0554_0A,x0556_0A,x0566_0A,x0310_0A,x0416_0A

>  <original SMILES>  (70) 
Cc1ccc(NC(=O)Nc2ccsc2)cc1

>  <rationale>  (70) 
info cluster #1 (rank 4); hbond:G127; 

>  <cluster_rank>  (70) 
4

>  <N_interactions>  (70) 
1

>  <N_interactions_lost>  (70) 
0

>  <∆∆G>  (70) 
-8.492289

>  <comRMSD>  (70) 
0.748653

>  <N_rotatable_bonds>  (70) 
3

>  <N_unconstrained_atoms>  (70) 
0

>  <N_constrained_atoms>  (70) 
16

$$$$
Z4066545899
     RDKit          3D

 29 31  0  0  0  0  0  0  0  0999 V2000
   11.8450   12.0640   25.0200 O   0  0  0  0  0  0  0  0  0  0  0  0
   11.1050   12.1550   24.0450 C   0  0  0  0  0  0  0  0  0  0  0  0
   10.0800   11.0470   23.9450 C   0  0  0  0  0  0  0  0  0  0  0  0
   10.3410    9.9040   23.1940 C   0  0  0  0  0  0  0  0  0  0  0  0
    9.3450    8.9270   23.1970 C   0  0  0  0  0  0  0  0  0  0  0  0
    8.1980    9.0590   23.8790 N   0  0  0  0  0  0  0  0  0  0  0  0
    7.9680   10.1720   24.5970 C   0  0  0  0  0  0  0  0  0  0  0  0
    6.7800   10.2980   25.3150 C   0  0  0  0  0  0  0  0  0  0  0  0
    6.4530   11.4060   26.0740 C   0  0  0  0  0  0  0  0  0  0  0  0
    4.9840   11.5330   26.9590 Cl  0  0  0  0  0  0  0  0  0  0  0  0
    7.4030   12.4190   26.0790 C   0  0  0  0  0  0  0  0  0  0  0  0
    8.5940   12.3180   25.3850 C   0  0  0  0  0  0  0  0  0  0  0  0
    8.8890   11.2060   24.6490 C   0  0  0  0  0  0  0  0  0  0  0  0
   11.1990   13.2200   23.1590 N   0  0  0  0  0  0  0  0  0  0  0  0
   10.2430   13.7090   22.1730 C   0  0  0  0  0  0  0  0  0  0  0  0
   10.4410   15.0520   22.0830 C   0  0  0  0  0  0  0  0  0  0  0  0
   11.4640   15.4310   22.8130 C   0  0  0  0  0  0  0  0  0  0  0  0
   12.0830   14.2900   23.5280 C   0  0  0  0  0  0  0  0  0  0  0  0
   11.2540    9.7720   22.6440 H   0  0  0  0  0  0  0  0  0  0  0  0
    9.4560    8.0020   22.6410 H   0  0  0  0  0  0  0  0  0  0  0  0
    6.0720    9.4830   25.2760 H   0  0  0  0  0  0  0  0  0  0  0  0
    7.2120   13.3220   26.6510 H   0  0  0  0  0  0  0  0  0  0  0  0
    9.2950   13.1480   25.4410 H   0  0  0  0  0  0  0  0  0  0  0  0
    9.2210   13.4610   22.4720 H   0  0  0  0  0  0  0  0  0  0  0  0
   10.4860   13.3070   21.2080 H   0  0  0  0  0  0  0  0  0  0  0  0
    9.8290   15.7020   21.4790 H   0  0  0  0  0  0  0  0  0  0  0  0
   11.8010   16.4460   22.8780 H   0  0  0  0  0  0  0  0  0  0  0  0
   13.0960   14.0750   23.1820 H   0  0  0  0  0  0  0  0  0  0  0  0
   12.0720   14.4220   24.6140 H   0  0  0  0  0  0  0  0  0  0  0  0
  1  2  2  0
  2  3  1  0
  3  4  2  0
  4  5  1  0
  5  6  2  0
  6  7  1  0
  7  8  2  0
  8  9  1  0
  9 10  1  0
  9 11  2  0
 11 12  1  0
 12 13  2  0
  2 14  1  0
 14 15  1  0
 15 16  1  0
 16 17  2  0
 17 18  1  0
 13  3  1  0
 13  7  1  0
 18 14  1  0
  4 19  1  0
  5 20  1  0
  8 21  1  0
 11 22  1  0
 12 23  1  0
 15 24  1  0
 15 25  1  0
 16 26  1  0
 17 27  1  0
 18 28  1  0
 18 29  1  0
A    1
 O1 
A    2
 C1 
A    3
 C2 
A    4
 C3 
A    5
 C4 
A    6
 N1 
A    7
 C5 
A    8
 C6 
A    9
 C7 
A   10
CL1 
A   11
 C8 
A   12
 C9 
A   13
 C10
A   14
 N2 
A   15
 C11
A   16
 C12
A   17
 C13
A   18
 C14
A   19
 H1 
A   20
 H2 
A   21
 H3 
A   22
 H4 
A   23
 H5 
A   24
 H6 
A   25
 H7 
A   26
 H8 
A   27
 H9 
A   28
 H10
A   29
 H11
M  END
>  <ref_pdb>  (71) 
x0554_0A

>  <ref_mols>  (71) 
x0451_0A,x0554_0A,x0556_0A,x0566_0A,x0310_0A,x0416_0A

>  <original SMILES>  (71) 
O=C(c1ccnc2cc(Cl)ccc12)N1CC=CC1

>  <rationale>  (71) 
info cluster #9 (rank 4); hbond:G108; hydroph_interaction:Y89; 

>  <cluster_rank>  (71) 
4

>  <N_interactions>  (71) 
2

>  <N_interactions_lost>  (71) 
0

>  <∆∆G>  (71) 
-5.357354

>  <comRMSD>  (71) 
0.659279

>  <N_rotatable_bonds>  (71) 
1

>  <N_unconstrained_atoms>  (71) 
1

>  <N_constrained_atoms>  (71) 
17

$$$$
Z44301044
     RDKit          3D

 31 33  0  0  0  0  0  0  0  0999 V2000
    4.5170   10.6120   27.3060 C   0  0  0  0  0  0  0  0  0  0  0  0
    5.8590   10.7380   26.6710 C   0  0  0  0  0  0  0  0  0  0  0  0
    6.6200   11.8410   26.8840 C   0  0  0  0  0  0  0  0  0  0  0  0
    7.8620   11.9150   26.3090 C   0  0  0  0  0  0  0  0  0  0  0  0
    8.3660   10.8970   25.5110 C   0  0  0  0  0  0  0  0  0  0  0  0
    9.6820   11.1810   25.0580 C   0  0  0  0  0  0  0  0  0  0  0  0
    9.9940   12.3400   24.5650 C   0  0  0  0  0  0  0  0  0  0  0  0
   11.3520   12.6980   24.1880 C   0  0  0  0  0  0  0  0  0  0  0  0
   12.4000   12.4070   24.7330 O   0  0  0  0  0  0  0  0  0  0  0  0
   11.1150   13.5020   23.0090 C   0  0  0  0  0  0  0  0  0  0  0  0
   11.9620   13.7690   21.9900 C   0  0  0  0  0  0  0  0  0  0  0  0
   11.5100   14.5600   20.9490 C   0  0  0  0  0  0  0  0  0  0  0  0
   10.1980   15.0710   20.9640 C   0  0  0  0  0  0  0  0  0  0  0  0
    9.3310   14.7920   22.0290 C   0  0  0  0  0  0  0  0  0  0  0  0
    9.8200   14.0000   23.0430 C   0  0  0  0  0  0  0  0  0  0  0  0
    9.1730   13.5310   24.2710 C   0  0  0  0  0  0  0  0  0  0  0  0
    8.2250   14.0240   24.8390 O   0  0  0  0  0  0  0  0  0  0  0  0
    7.6150    9.7930   25.2670 C   0  0  0  0  0  0  0  0  0  0  0  0
    6.3660    9.7540   25.8700 C   0  0  0  0  0  0  0  0  0  0  0  0
    4.6110   10.7370   28.3900 H   0  0  0  0  0  0  0  0  0  0  0  0
    3.8280   11.3690   26.9230 H   0  0  0  0  0  0  0  0  0  0  0  0
    4.0870    9.6250   27.1090 H   0  0  0  0  0  0  0  0  0  0  0  0
    6.2600   12.6570   27.5080 H   0  0  0  0  0  0  0  0  0  0  0  0
    8.4620   12.8000   26.4960 H   0  0  0  0  0  0  0  0  0  0  0  0
   10.4250   10.3940   25.1860 H   0  0  0  0  0  0  0  0  0  0  0  0
   12.9460   13.3650   22.0050 H   0  0  0  0  0  0  0  0  0  0  0  0
   12.1710   14.7870   20.1140 H   0  0  0  0  0  0  0  0  0  0  0  0
    9.8550   15.6910   20.1390 H   0  0  0  0  0  0  0  0  0  0  0  0
    8.3180   15.1800   22.0560 H   0  0  0  0  0  0  0  0  0  0  0  0
    7.9650    8.9720   24.6460 H   0  0  0  0  0  0  0  0  0  0  0  0
    5.7570    8.9470   25.7350 H   0  0  0  0  0  0  0  0  0  0  0  0
  1  2  1  0
  2  3  2  0
  3  4  1  0
  4  5  2  0
  5  6  1  0
  6  7  2  3
  7  8  1  0
  8  9  2  0
  8 10  1  0
 10 11  2  0
 11 12  1  0
 12 13  2  0
 13 14  1  0
 14 15  2  0
 15 16  1  0
 16 17  2  0
  5 18  1  0
 18 19  2  0
 19  2  1  0
 16  7  1  0
 15 10  1  0
  1 20  1  0
  1 21  1  0
  1 22  1  0
  3 23  1  0
  4 24  1  0
  6 25  1  0
 11 26  1  0
 12 27  1  0
 13 28  1  0
 14 29  1  0
 18 30  1  0
 19 31  1  0
A    1
 C1 
A    2
 C2 
A    3
 C3 
A    4
 C4 
A    5
 C5 
A    6
 C6 
A    7
 C7 
A    8
 C8 
A    9
 O1 
A   10
 C9 
A   11
 C10
A   12
 C11
A   13
 C12
A   14
 C13
A   15
 C14
A   16
 C15
A   17
 O2 
A   18
 C16
A   19
 C17
A   20
 H1 
A   21
 H2 
A   22
 H3 
A   23
 H4 
A   24
 H5 
A   25
 H6 
A   26
 H7 
A   27
 H8 
A   28
 H9 
A   29
 H10
A   30
 H11
A   31
 H12
M  END
>  <ref_pdb>  (72) 
x0554_0A

>  <ref_mols>  (72) 
x0451_0A,x0554_0A,x0556_0A,x0566_0A,x0310_0A,x0416_0A

>  <original SMILES>  (72) 
Cc1ccc(C=C2C(=O)c3ccccc3C2=O)cc1

>  <rationale>  (72) 
info cluster #18 (rank 4); hydroph_interaction:P107; 

>  <cluster_rank>  (72) 
4

>  <N_interactions>  (72) 
1

>  <N_interactions_lost>  (72) 
0

>  <∆∆G>  (72) 
-6.573883

>  <comRMSD>  (72) 
0.779061

>  <N_rotatable_bonds>  (72) 
2

>  <N_unconstrained_atoms>  (72) 
1

>  <N_constrained_atoms>  (72) 
18

$$$$
PV_002803571303
     RDKit          3D

 30 32  0  0  0  0  0  0  0  0999 V2000
   11.4450   16.2170   22.5760 O   0  0  0  0  0  0  0  0  0  0  0  0
   10.9440   14.9630   22.8110 C   0  0  0  0  0  0  0  0  0  0  0  0
   11.8810   13.9270   23.2680 C   0  0  0  0  0  0  0  0  0  0  0  0
   11.4500   12.6480   23.4900 C   0  0  0  0  0  0  0  0  0  0  0  0
   10.0970   12.2470   23.2990 C   0  0  0  0  0  0  0  0  0  0  0  0
    9.6810   10.9190   23.4860 C   0  0  0  0  0  0  0  0  0  0  0  0
   10.3730    9.7930   22.7310 C   0  0  0  0  0  0  0  0  0  0  0  0
    9.6200    8.6140   23.2130 C   0  0  0  0  0  0  0  0  0  0  0  0
    8.6760    8.9440   24.0740 N   0  0  0  0  0  0  0  0  0  0  0  0
    8.7050   10.3120   24.2450 N   0  0  0  0  0  0  0  0  0  0  0  0
    7.7690   10.8600   25.1260 C   0  0  0  0  0  0  0  0  0  0  0  0
    6.9880    9.9810   25.8270 C   0  0  0  0  0  0  0  0  0  0  0  0
    6.0300   10.4290   26.7180 C   0  0  0  0  0  0  0  0  0  0  0  0
    5.8580   11.7920   26.9090 C   0  0  0  0  0  0  0  0  0  0  0  0
    6.6450   12.6870   26.2050 C   0  0  0  0  0  0  0  0  0  0  0  0
    7.6070   12.2270   25.3070 C   0  0  0  0  0  0  0  0  0  0  0  0
    9.1960   13.2750   22.8810 C   0  0  0  0  0  0  0  0  0  0  0  0
    9.6080   14.6060   22.6370 C   0  0  0  0  0  0  0  0  0  0  0  0
   10.7420   16.8780   22.5180 H   0  0  0  0  0  0  0  0  0  0  0  0
   12.9270   14.1720   23.4210 H   0  0  0  0  0  0  0  0  0  0  0  0
   12.1820   11.9130   23.8150 H   0  0  0  0  0  0  0  0  0  0  0  0
   11.1830    9.8390   22.0360 H   0  0  0  0  0  0  0  0  0  0  0  0
    9.7470    7.5750   22.9570 H   0  0  0  0  0  0  0  0  0  0  0  0
    7.1100    8.9190   25.6940 H   0  0  0  0  0  0  0  0  0  0  0  0
    5.4200    9.7140   27.2640 H   0  0  0  0  0  0  0  0  0  0  0  0
    5.1080   12.1550   27.6080 H   0  0  0  0  0  0  0  0  0  0  0  0
    6.5130   13.7560   26.3520 H   0  0  0  0  0  0  0  0  0  0  0  0
    8.1920   12.9690   24.7850 H   0  0  0  0  0  0  0  0  0  0  0  0
    8.1470   13.0250   22.7300 H   0  0  0  0  0  0  0  0  0  0  0  0
    8.8700   15.3330   22.3100 H   0  0  0  0  0  0  0  0  0  0  0  0
  1  2  1  0
  2  3  2  0
  3  4  1  0
  4  5  2  0
  5  6  1  0
  6  7  2  0
  7  8  1  0
  8  9  2  0
  9 10  1  0
 10 11  1  0
 11 12  2  0
 12 13  1  0
 13 14  2  0
 14 15  1  0
 15 16  2  0
  5 17  1  0
 17 18  2  0
 18  2  1  0
 10  6  1  0
 16 11  1  0
  1 19  1  0
  3 20  1  0
  4 21  1  0
  7 22  1  0
  8 23  1  0
 12 24  1  0
 13 25  1  0
 14 26  1  0
 15 27  1  0
 16 28  1  0
 17 29  1  0
 18 30  1  0
A    1
 O1 
A    2
 C1 
A    3
 C2 
A    4
 C3 
A    5
 C4 
A    6
 C5 
A    7
 C6 
A    8
 C7 
A    9
 N1 
A   10
 N2 
A   11
 C8 
A   12
 C9 
A   13
 C10
A   14
 C11
A   15
 C12
A   16
 C13
A   17
 C14
A   18
 C15
A   19
 H1 
A   20
 H2 
A   21
 H3 
A   22
 H4 
A   23
 H5 
A   24
 H6 
A   25
 H7 
A   26
 H8 
A   27
 H9 
A   28
 H10
A   29
 H11
A   30
 H12
M  END
>  <ref_pdb>  (73) 
x0554_0A

>  <ref_mols>  (73) 
x0451_0A,x0554_0A,x0556_0A,x0566_0A,x0310_0A,x0416_0A

>  <original SMILES>  (73) 
Oc1ccc(-c2ccnn2-c2ccccc2)cc1

>  <rationale>  (73) 
info cluster #19 (rank 4); hbond:S87; hydroph_interaction:Y89+V124; 

>  <cluster_rank>  (73) 
4

>  <N_interactions>  (73) 
4

>  <N_interactions_lost>  (73) 
0

>  <∆∆G>  (73) 
-7.202592

>  <comRMSD>  (73) 
0.667727

>  <N_rotatable_bonds>  (73) 
3

>  <N_unconstrained_atoms>  (73) 
1

>  <N_constrained_atoms>  (73) 
17

$$$$
PV_006841972111
     RDKit          3D

 27 29  0  0  0  0  0  0  0  0999 V2000
   11.1280   12.3330   25.2490 O   0  0  0  0  0  0  0  0  0  0  0  0
   10.8200   12.5070   24.0710 C   0  0  0  0  0  0  0  0  0  0  0  0
   10.0970   11.6390   23.3220 N   0  0  0  0  0  0  0  0  0  0  0  0
    9.3700   10.6890   23.9470 N   0  0  0  0  0  0  0  0  0  0  0  0
    9.2760    9.3470   23.5220 C   0  0  0  0  0  0  0  0  0  0  0  0
    9.8910    8.7690   22.6460 O   0  0  0  0  0  0  0  0  0  0  0  0
    8.3030    8.7950   24.3410 N   0  0  0  0  0  0  0  0  0  0  0  0
    7.6370    9.8310   25.0120 C   0  0  0  0  0  0  0  0  0  0  0  0
    6.5080    9.8430   25.8130 C   0  0  0  0  0  0  0  0  0  0  0  0
    6.0880   11.0530   26.3460 C   0  0  0  0  0  0  0  0  0  0  0  0
    6.7790   12.2410   26.0870 C   0  0  0  0  0  0  0  0  0  0  0  0
    7.9080   12.2070   25.2830 C   0  0  0  0  0  0  0  0  0  0  0  0
    8.3140   10.9940   24.7590 C   0  0  0  0  0  0  0  0  0  0  0  0
   11.1660   13.6430   23.2610 C   0  0  0  0  0  0  0  0  0  0  0  0
   11.9670   13.7610   22.1360 C   0  0  0  0  0  0  0  0  0  0  0  0
   12.0530   15.0040   21.6120 C   0  0  0  0  0  0  0  0  0  0  0  0
   11.3350   15.9010   22.2950 C   0  0  0  0  0  0  0  0  0  0  0  0
   10.5290   15.1950   23.6370 S   0  0  0  0  0  0  0  0  0  0  0  0
   10.4560   11.4090   22.3860 H   0  0  0  0  0  0  0  0  0  0  0  0
    7.9870    7.8510   24.2170 H   0  0  0  0  0  0  0  0  0  0  0  0
    5.9170    9.0020   26.0670 H   0  0  0  0  0  0  0  0  0  0  0  0
    5.2040   11.0800   26.9760 H   0  0  0  0  0  0  0  0  0  0  0  0
    6.4330   13.1800   26.5130 H   0  0  0  0  0  0  0  0  0  0  0  0
    8.5280   13.0710   25.0110 H   0  0  0  0  0  0  0  0  0  0  0  0
   12.4910   12.9410   21.6920 H   0  0  0  0  0  0  0  0  0  0  0  0
   12.6430   15.2410   20.7300 H   0  0  0  0  0  0  0  0  0  0  0  0
   11.3060   16.9260   21.9940 H   0  0  0  0  0  0  0  0  0  0  0  0
  1  2  2  0
  2  3  1  0
  3  4  1  0
  4  5  1  0
  5  6  2  0
  5  7  1  0
  7  8  1  0
  8  9  2  0
  9 10  1  0
 10 11  2  0
 11 12  1  0
 12 13  2  0
  2 14  1  0
 14 15  2  0
 15 16  1  0
 16 17  2  0
 17 18  1  0
 13  4  1  0
 13  8  1  0
 18 14  1  0
  3 19  1  0
  7 20  1  0
  9 21  1  0
 10 22  1  0
 11 23  1  0
 12 24  1  0
 15 25  1  0
 16 26  1  0
 17 27  1  0
A    1
 O1 
A    2
 C1 
A    3
 N1 
A    4
 N2 
A    5
 C2 
A    6
 O2 
A    7
 N3 
A    8
 C3 
A    9
 C4 
A   10
 C5 
A   11
 C6 
A   12
 C7 
A   13
 C8 
A   14
 C9 
A   15
 C10
A   16
 C11
A   17
 C12
A   18
 S1 
A   19
 H1 
A   20
 H2 
A   21
 H3 
A   22
 H4 
A   23
 H5 
A   24
 H6 
A   25
 H7 
A   26
 H8 
A   27
 H9 
M  END
>  <ref_pdb>  (74) 
x0554_0A

>  <ref_mols>  (74) 
x0451_0A,x0554_0A,x0556_0A,x0566_0A,x0310_0A,x0416_0A

>  <original SMILES>  (74) 
O=C(Nn1c(=O)[nH]c2ccccc21)c1cccs1

>  <rationale>  (74) 
info cluster #7 (rank 4); hbond:S125; pistack:Y89; 

>  <cluster_rank>  (74) 
4

>  <N_interactions>  (74) 
2

>  <N_interactions_lost>  (74) 
0

>  <∆∆G>  (74) 
-6.127043

>  <comRMSD>  (74) 
0.658177

>  <N_rotatable_bonds>  (74) 
2

>  <N_unconstrained_atoms>  (74) 
1

>  <N_constrained_atoms>  (74) 
17

$$$$
Z2204868599
     RDKit          3D

 27 29  0  0  0  0  0  0  0  0999 V2000
   11.4080   15.7290   25.3100 C   0  0  0  0  0  0  0  0  0  0  0  0
   11.1200   14.8390   24.1450 C   0  0  0  0  0  0  0  0  0  0  0  0
   10.6380   13.5330   24.3590 C   0  0  0  0  0  0  0  0  0  0  0  0
   10.3780   12.7820   23.2880 C   0  0  0  0  0  0  0  0  0  0  0  0
    9.8620   11.4290   23.4740 C   0  0  0  0  0  0  0  0  0  0  0  0
   10.3440   10.2370   22.9020 C   0  0  0  0  0  0  0  0  0  0  0  0
    9.8240    9.0140   23.1210 N   0  0  0  0  0  0  0  0  0  0  0  0
    8.7790    8.9640   23.9650 C   0  0  0  0  0  0  0  0  0  0  0  0
    8.2180   10.0720   24.5920 C   0  0  0  0  0  0  0  0  0  0  0  0
    7.0650    9.9620   25.5150 C   0  0  0  0  0  0  0  0  0  0  0  0
    6.5100   11.1250   26.1370 C   0  0  0  0  0  0  0  0  0  0  0  0
    7.0740   12.3650   25.8590 C   0  0  0  0  0  0  0  0  0  0  0  0
    8.1870   12.4560   24.9700 C   0  0  0  0  0  0  0  0  0  0  0  0
    8.7620   11.3360   24.3400 C   0  0  0  0  0  0  0  0  0  0  0  0
   10.6810   13.5430   22.1370 C   0  0  0  0  0  0  0  0  0  0  0  0
   11.2700   15.1310   22.4740 S   0  0  0  0  0  0  0  0  0  0  0  0
   12.1760   15.2700   25.9310 H   0  0  0  0  0  0  0  0  0  0  0  0
   10.5030   15.8340   25.9110 H   0  0  0  0  0  0  0  0  0  0  0  0
   11.7340   16.7110   24.9850 H   0  0  0  0  0  0  0  0  0  0  0  0
   10.4860   13.1770   25.3740 H   0  0  0  0  0  0  0  0  0  0  0  0
   11.1860   10.2390   22.2330 H   0  0  0  0  0  0  0  0  0  0  0  0
    8.3870    7.9650   24.1340 H   0  0  0  0  0  0  0  0  0  0  0  0
    6.6810    8.9720   25.6830 H   0  0  0  0  0  0  0  0  0  0  0  0
    5.6630   11.0530   26.8150 H   0  0  0  0  0  0  0  0  0  0  0  0
    6.6730   13.2640   26.3140 H   0  0  0  0  0  0  0  0  0  0  0  0
    8.6200   13.4280   24.7600 H   0  0  0  0  0  0  0  0  0  0  0  0
   10.5960   13.2850   21.1080 H   0  0  0  0  0  0  0  0  0  0  0  0
  1  2  1  0
  2  3  2  0
  3  4  1  0
  4  5  1  0
  5  6  2  0
  6  7  1  0
  7  8  2  0
  8  9  1  0
  9 10  2  0
 10 11  1  0
 11 12  2  0
 12 13  1  0
 13 14  2  0
  4 15  2  0
 15 16  1  0
 16  2  1  0
 14  5  1  0
 14  9  1  0
  1 17  1  0
  1 18  1  0
  1 19  1  0
  3 20  1  0
  6 21  1  0
  8 22  1  0
 10 23  1  0
 11 24  1  0
 12 25  1  0
 13 26  1  0
 15 27  1  0
A    1
 C1 
A    2
 C2 
A    3
 C3 
A    4
 C4 
A    5
 C5 
A    6
 C6 
A    7
 N1 
A    8
 C7 
A    9
 C8 
A   10
 C9 
A   11
 C10
A   12
 C11
A   13
 C12
A   14
 C13
A   15
 C14
A   16
 S1 
A   17
 H1 
A   18
 H2 
A   19
 H3 
A   20
 H4 
A   21
 H5 
A   22
 H6 
A   23
 H7 
A   24
 H8 
A   25
 H9 
A   26
 H10
A   27
 H11
M  END
>  <ref_pdb>  (75) 
x0554_0A

>  <ref_mols>  (75) 
x0451_0A,x0554_0A,x0556_0A,x0566_0A,x0310_0A,x0416_0A

>  <original SMILES>  (75) 
Cc1cc(-c2cncc3ccccc23)cs1

>  <rationale>  (75) 
info cluster #6 (rank 4); hbond:C110; hydroph_interaction:Y89; 

>  <cluster_rank>  (75) 
4

>  <N_interactions>  (75) 
2

>  <N_interactions_lost>  (75) 
0

>  <∆∆G>  (75) 
-6.378635

>  <comRMSD>  (75) 
0.755416

>  <N_rotatable_bonds>  (75) 
2

>  <N_unconstrained_atoms>  (75) 
0

>  <N_constrained_atoms>  (75) 
16

$$$$
Z55663941
     RDKit          3D

 28 30  0  0  0  0  0  0  0  0999 V2000
    7.8960   13.2890   26.5710 O   0  0  0  0  0  0  0  0  0  0  0  0
    7.6190   12.1690   26.1740 C   0  0  0  0  0  0  0  0  0  0  0  0
    6.4540   11.4670   26.7290 C   0  0  0  0  0  0  0  0  0  0  0  0
    5.6880   12.0250   27.7510 C   0  0  0  0  0  0  0  0  0  0  0  0
    4.5840   11.3720   28.2700 C   0  0  0  0  0  0  0  0  0  0  0  0
    4.1850   10.1580   27.7970 C   0  0  0  0  0  0  0  0  0  0  0  0
    5.0340    9.5960   26.6950 C   0  0  0  0  0  0  0  0  0  0  0  0
    6.1510   10.2570   26.2070 C   0  0  0  0  0  0  0  0  0  0  0  0
    6.9410    9.5970   25.1640 N   0  0  0  0  0  0  0  0  0  0  0  0
    7.9730   10.2540   24.7570 C   0  0  0  0  0  0  0  0  0  0  0  0
    8.9750    9.4170   23.5830 S   0  0  0  0  0  0  0  0  0  0  0  0
    8.3320   11.5090   25.1960 N   0  0  0  0  0  0  0  0  0  0  0  0
    8.9070   12.3050   24.2910 C   0  0  0  0  0  0  0  0  0  0  0  0
   10.2050   12.1160   23.8990 C   0  0  0  0  0  0  0  0  0  0  0  0
   10.8070   13.0360   22.9090 C   0  0  0  0  0  0  0  0  0  0  0  0
   10.0290   14.1610   22.3280 C   0  0  0  0  0  0  0  0  0  0  0  0
    8.7210   14.2390   22.8120 C   0  0  0  0  0  0  0  0  0  0  0  0
    7.7280   15.5210   22.2210 Cl  0  0  0  0  0  0  0  0  0  0  0  0
    8.1800   13.3640   23.7370 C   0  0  0  0  0  0  0  0  0  0  0  0
    5.8840   13.0010   28.2220 H   0  0  0  0  0  0  0  0  0  0  0  0
    4.0250   11.8600   29.0770 H   0  0  0  0  0  0  0  0  0  0  0  0
    3.3160    9.6320   28.1860 H   0  0  0  0  0  0  0  0  0  0  0  0
    4.7570    8.6820   26.3080 H   0  0  0  0  0  0  0  0  0  0  0  0
    7.9790    9.2250   22.7000 H   0  0  0  0  0  0  0  0  0  0  0  0
   10.8070   11.3070   24.3030 H   0  0  0  0  0  0  0  0  0  0  0  0
   11.8320   12.9090   22.5890 H   0  0  0  0  0  0  0  0  0  0  0  0
   10.4480   14.8510   21.6010 H   0  0  0  0  0  0  0  0  0  0  0  0
    7.1480   13.5200   24.0450 H   0  0  0  0  0  0  0  0  0  0  0  0
  1  2  2  0
  2  3  1  0
  3  4  2  0
  4  5  1  0
  5  6  2  0
  6  7  1  0
  7  8  2  0
  8  9  1  0
  9 10  2  0
 10 11  1  0
 10 12  1  0
 12 13  1  0
 13 14  2  0
 14 15  1  0
 15 16  2  0
 16 17  1  0
 17 18  1  0
 17 19  2  0
 12  2  1  0
  8  3  1  0
 19 13  1  0
  4 20  1  0
  5 21  1  0
  6 22  1  0
  7 23  1  0
 11 24  1  0
 14 25  1  0
 15 26  1  0
 16 27  1  0
 19 28  1  0
A    1
 O1 
A    2
 C1 
A    3
 C2 
A    4
 C3 
A    5
 C4 
A    6
 C5 
A    7
 C6 
A    8
 C7 
A    9
 N1 
A   10
 C8 
A   11
 S1 
A   12
 N2 
A   13
 C9 
A   14
 C10
A   15
 C11
A   16
 C12
A   17
 C13
A   18
CL1 
A   19
 C14
A   20
 H1 
A   21
 H2 
A   22
 H3 
A   23
 H4 
A   24
 H5 
A   25
 H6 
A   26
 H7 
A   27
 H8 
A   28
 H9 
M  END
>  <ref_pdb>  (76) 
x0554_0A

>  <ref_mols>  (76) 
x0451_0A,x0554_0A,x0556_0A,x0566_0A,x0310_0A,x0416_0A

>  <original SMILES>  (76) 
O=c1c2ccccc2nc(S)n1-c1cccc(Cl)c1

>  <rationale>  (76) 
info cluster #15 (rank 4); hbond:S105; 

>  <cluster_rank>  (76) 
4

>  <N_interactions>  (76) 
1

>  <N_interactions_lost>  (76) 
0

>  <∆∆G>  (76) 
-4.896967

>  <comRMSD>  (76) 
0.952399

>  <N_rotatable_bonds>  (76) 
1

>  <N_unconstrained_atoms>  (76) 
1

>  <N_constrained_atoms>  (76) 
18

$$$$
PV_002924022066
     RDKit          3D

 23 25  0  0  0  0  0  0  0  0999 V2000
    6.2260   10.4280   26.7350 C   0  0  0  0  0  0  0  0  0  0  0  0
    7.3130    9.9530   25.8490 C   0  0  0  0  0  0  0  0  0  0  0  0
    8.0250   10.8630   25.1000 C   0  0  0  0  0  0  0  0  0  0  0  0
    9.0100   10.4710   24.2830 N   0  0  0  0  0  0  0  0  0  0  0  0
    9.6760   11.4090   23.5590 N   0  0  0  0  0  0  0  0  0  0  0  0
    9.3260   12.7100   23.6860 C   0  0  0  0  0  0  0  0  0  0  0  0
    9.9690   13.7040   22.9420 C   0  0  0  0  0  0  0  0  0  0  0  0
   11.2380   13.5400   22.2730 C   0  0  0  0  0  0  0  0  0  0  0  0
   11.8200   14.6160   21.5090 C   0  0  0  0  0  0  0  0  0  0  0  0
   11.2050   15.7950   21.4120 N   0  0  0  0  0  0  0  0  0  0  0  0
   10.0170   15.9630   22.0470 N   0  0  0  0  0  0  0  0  0  0  0  0
    9.4320   14.9650   22.7730 C   0  0  0  0  0  0  0  0  0  0  0  0
    8.3560   13.1370   24.4990 N   0  0  0  0  0  0  0  0  0  0  0  0
    7.7030   12.2200   25.2040 C   0  0  0  0  0  0  0  0  0  0  0  0
    6.6870   12.6600   26.0440 C   0  0  0  0  0  0  0  0  0  0  0  0
    5.9430   11.7660   26.8120 C   0  0  0  0  0  0  0  0  0  0  0  0
    5.7020    9.6440   27.2940 H   0  0  0  0  0  0  0  0  0  0  0  0
    7.5650    8.9150   25.7700 H   0  0  0  0  0  0  0  0  0  0  0  0
   11.7560   12.6450   22.3240 H   0  0  0  0  0  0  0  0  0  0  0  0
   12.7640   14.5220   20.9910 H   0  0  0  0  0  0  0  0  0  0  0  0
    8.4780   15.2510   23.2190 H   0  0  0  0  0  0  0  0  0  0  0  0
    6.4680   13.7230   26.0980 H   0  0  0  0  0  0  0  0  0  0  0  0
    5.1500   12.1260   27.4600 H   0  0  0  0  0  0  0  0  0  0  0  0
  1  2  2  0
  2  3  1  0
  3  4  2  0
  4  5  1  0
  5  6  2  0
  6  7  1  0
  7  8  2  0
  8  9  1  0
  9 10  2  0
 10 11  1  0
 11 12  2  0
  6 13  1  0
 13 14  2  0
 14 15  1  0
 15 16  2  0
 16  1  1  0
 14  3  1  0
 12  7  1  0
  1 17  1  0
  2 18  1  0
  8 19  1  0
  9 20  1  0
 12 21  1  0
 15 22  1  0
 16 23  1  0
A    1
 C1 
A    2
 C2 
A    3
 C3 
A    4
 N1 
A    5
 N2 
A    6
 C4 
A    7
 C5 
A    8
 C6 
A    9
 C7 
A   10
 N3 
A   11
 N4 
A   12
 C8 
A   13
 N5 
A   14
 C9 
A   15
 C10
A   16
 C11
A   17
 H1 
A   18
 H2 
A   19
 H3 
A   20
 H4 
A   21
 H5 
A   22
 H6 
A   23
 H7 
M  END
>  <ref_pdb>  (77) 
x0554_0A

>  <ref_mols>  (77) 
x0451_0A,x0554_0A,x0556_0A,x0566_0A,x0310_0A,x0416_0A

>  <original SMILES>  (77) 
c1ccc2nc(-c3ccnnc3)nnc2c1

>  <rationale>  (77) 
info cluster #16 (rank 4); hbond:S87+E106; 

>  <cluster_rank>  (77) 
4

>  <N_interactions>  (77) 
2

>  <N_interactions_lost>  (77) 
0

>  <∆∆G>  (77) 
-4.353537

>  <comRMSD>  (77) 
0.650514

>  <N_rotatable_bonds>  (77) 
1

>  <N_unconstrained_atoms>  (77) 
0

>  <N_constrained_atoms>  (77) 
16

$$$$
Z5431126045
     RDKit          3D

 28 29  0  0  0  0  0  0  0  0999 V2000
   10.6100   10.0840   22.9660 C   0  0  0  0  0  0  0  0  0  0  0  0
    9.5150   10.5650   23.8620 C   0  0  0  0  0  0  0  0  0  0  0  0
    8.7770    9.6250   24.5760 C   0  0  0  0  0  0  0  0  0  0  0  0
    7.7460   10.0310   25.4220 C   0  0  0  0  0  0  0  0  0  0  0  0
    7.4300   11.3490   25.5650 C   0  0  0  0  0  0  0  0  0  0  0  0
    6.3860   11.6250   26.4080 C   0  0  0  0  0  0  0  0  0  0  0  0
    5.6170   10.4850   26.5280 N   0  0  0  0  0  0  0  0  0  0  0  0
    6.2050   12.8480   26.9920 O   0  0  0  0  0  0  0  0  0  0  0  0
    8.1600   12.3100   24.8660 C   0  0  0  0  0  0  0  0  0  0  0  0
    9.2000   11.9460   24.0190 C   0  0  0  0  0  0  0  0  0  0  0  0
    9.9140   12.9410   23.3430 C   0  0  0  0  0  0  0  0  0  0  0  0
   11.3510   13.1200   23.5730 C   0  0  0  0  0  0  0  0  0  0  0  0
   11.9780   14.1360   22.8400 C   0  0  0  0  0  0  0  0  0  0  0  0
   11.2460   14.9140   21.9490 C   0  0  0  0  0  0  0  0  0  0  0  0
    9.9750   14.7810   21.7310 N   0  0  0  0  0  0  0  0  0  0  0  0
    9.3260   13.8050   22.4300 C   0  0  0  0  0  0  0  0  0  0  0  0
   11.2310    9.3520   23.4900 H   0  0  0  0  0  0  0  0  0  0  0  0
   10.2200    9.5930   22.0710 H   0  0  0  0  0  0  0  0  0  0  0  0
   11.2240   10.9270   22.6470 H   0  0  0  0  0  0  0  0  0  0  0  0
    9.0040    8.5710   24.4770 H   0  0  0  0  0  0  0  0  0  0  0  0
    7.1850    9.2820   25.9730 H   0  0  0  0  0  0  0  0  0  0  0  0
    4.7070   10.5980   26.9520 H   0  0  0  0  0  0  0  0  0  0  0  0
    5.7710    9.6660   25.9210 H   0  0  0  0  0  0  0  0  0  0  0  0
    7.9170   13.3700   24.9790 H   0  0  0  0  0  0  0  0  0  0  0  0
   11.8470   12.4660   24.2840 H   0  0  0  0  0  0  0  0  0  0  0  0
   13.0360   14.3360   22.9480 H   0  0  0  0  0  0  0  0  0  0  0  0
   11.8150   15.6890   21.4070 H   0  0  0  0  0  0  0  0  0  0  0  0
    8.2670   13.7350   22.2210 H   0  0  0  0  0  0  0  0  0  0  0  0
  1  2  1  0
  2  3  2  0
  3  4  1  0
  4  5  2  0
  5  6  1  0
  6  7  1  0
  6  8  2  0
  5  9  1  0
  9 10  2  0
 10 11  1  0
 11 12  2  0
 12 13  1  0
 13 14  2  0
 14 15  1  0
 15 16  2  0
 10  2  1  0
 16 11  1  0
  1 17  1  0
  1 18  1  0
  1 19  1  0
  3 20  1  0
  4 21  1  0
  7 22  1  0
  7 23  1  0
  9 24  1  0
 12 25  1  0
 13 26  1  0
 14 27  1  0
 16 28  1  0
A    1
 C1 
A    2
 C2 
A    3
 C3 
A    4
 C4 
A    5
 C5 
A    6
 C6 
A    7
 N1 
A    8
 O1 
A    9
 C7 
A   10
 C8 
A   11
 C9 
A   12
 C10
A   13
 C11
A   14
 C12
A   15
 N2 
A   16
 C13
A   17
 H1 
A   18
 H2 
A   19
 H3 
A   20
 H4 
A   21
 H5 
A   22
 H6 
A   23
 H7 
A   24
 H8 
A   25
 H9 
A   26
 H10
A   27
 H11
A   28
 H12
M  END
>  <ref_pdb>  (78) 
x0554_0A

>  <ref_mols>  (78) 
x0451_0A,x0554_0A,x0556_0A,x0566_0A,x0310_0A,x0416_0A

>  <original SMILES>  (78) 
Cc1ccc(C(N)=O)cc1-c1cccnc1

>  <rationale>  (78) 
info cluster #4 (rank 4); hbond:S105; hydroph_interaction:Y89; 

>  <cluster_rank>  (78) 
4

>  <N_interactions>  (78) 
2

>  <N_interactions_lost>  (78) 
0

>  <∆∆G>  (78) 
-7.233667

>  <comRMSD>  (78) 
0.641269

>  <N_rotatable_bonds>  (78) 
3

>  <N_unconstrained_atoms>  (78) 
0

>  <N_constrained_atoms>  (78) 
16

$$$$
Z1224383668
     RDKit          3D

 23 25  0  0  0  0  0  0  0  0999 V2000
    9.5270    9.5450   24.0200 Br  0  0  0  0  0  0  0  0  0  0  0  0
    8.1870   10.4490   25.0060 C   0  0  0  0  0  0  0  0  0  0  0  0
    7.2120    9.5710   25.5900 C   0  0  0  0  0  0  0  0  0  0  0  0
    6.1620   10.1910   26.3180 C   0  0  0  0  0  0  0  0  0  0  0  0
    5.9990   11.5370   26.5300 C   0  0  0  0  0  0  0  0  0  0  0  0
    6.9900   12.4040   25.9650 C   0  0  0  0  0  0  0  0  0  0  0  0
    8.0470   11.7980   25.2260 C   0  0  0  0  0  0  0  0  0  0  0  0
    8.9970   12.6180   24.7090 C   0  0  0  0  0  0  0  0  0  0  0  0
    9.5110   12.7210   23.5160 N   0  0  0  0  0  0  0  0  0  0  0  0
   10.3930   13.7220   23.7160 C   0  0  0  0  0  0  0  0  0  0  0  0
   11.2970   14.2960   22.6240 C   0  0  0  0  0  0  0  0  0  0  0  0
   12.0290   15.3720   22.7650 N   0  0  0  0  0  0  0  0  0  0  0  0
   12.6630   15.5550   21.5820 N   0  0  0  0  0  0  0  0  0  0  0  0
   12.3080   14.5970   20.7550 C   0  0  0  0  0  0  0  0  0  0  0  0
   11.4490   13.7730   21.3710 N   0  0  0  0  0  0  0  0  0  0  0  0
   10.4500   14.2300   24.9470 N   0  0  0  0  0  0  0  0  0  0  0  0
    9.5110   13.4890   25.6180 O   0  0  0  0  0  0  0  0  0  0  0  0
    7.3160    8.5360   25.4620 H   0  0  0  0  0  0  0  0  0  0  0  0
    5.4170    9.5280   26.7540 H   0  0  0  0  0  0  0  0  0  0  0  0
    5.1810   11.9570   27.0950 H   0  0  0  0  0  0  0  0  0  0  0  0
    6.9510   13.4770   26.0880 H   0  0  0  0  0  0  0  0  0  0  0  0
   12.6530   14.4770   19.7300 H   0  0  0  0  0  0  0  0  0  0  0  0
   11.0100   12.9470   20.9980 H   0  0  0  0  0  0  0  0  0  0  0  0
  1  2  1  0
  2  3  2  0
  3  4  1  0
  4  5  2  0
  5  6  1  0
  6  7  2  0
  7  8  1  0
  8  9  2  0
  9 10  1  0
 10 11  1  0
 11 12  2  0
 12 13  1  0
 13 14  2  0
 14 15  1  0
 10 16  2  0
 16 17  1  0
  7  2  1  0
 17  8  1  0
 15 11  1  0
  3 18  1  0
  4 19  1  0
  5 20  1  0
  6 21  1  0
 14 22  1  0
 15 23  1  0
A    1
BR1 
A    2
 C1 
A    3
 C2 
A    4
 C3 
A    5
 C4 
A    6
 C5 
A    7
 C6 
A    8
 C7 
A    9
 N1 
A   10
 C8 
A   11
 C9 
A   12
 N2 
A   13
 N3 
A   14
 C10
A   15
 N4 
A   16
 N5 
A   17
 O1 
A   18
 H1 
A   19
 H2 
A   20
 H3 
A   21
 H4 
A   22
 H5 
A   23
 H6 
M  END
>  <ref_pdb>  (79) 
x0554_0A

>  <ref_mols>  (79) 
x0451_0A,x0554_0A,x0556_0A,x0566_0A,x0310_0A,x0416_0A

>  <original SMILES>  (79) 
Brc1ccccc1-c1nc(-c2nnc[nH]2)no1

>  <rationale>  (79) 
info cluster #8 (rank 4); halogenbond:C110; hbond:S125+S87; pistack:H21; 

>  <cluster_rank>  (79) 
4

>  <N_interactions>  (79) 
4

>  <N_interactions_lost>  (79) 
0

>  <∆∆G>  (79) 
-5.098408

>  <comRMSD>  (79) 
0.63802

>  <N_rotatable_bonds>  (79) 
2

>  <N_unconstrained_atoms>  (79) 
0

>  <N_constrained_atoms>  (79) 
17

$$$$
Z3484509541
     RDKit          3D

 32 34  0  0  0  0  0  0  0  0999 V2000
    9.2420    7.8960   23.2240 C   0  0  0  0  0  0  0  0  0  0  0  0
    9.5420    9.3420   23.4250 C   0  0  0  0  0  0  0  0  0  0  0  0
   10.7560    9.7560   22.9130 C   0  0  0  0  0  0  0  0  0  0  0  0
   10.9410   11.2250   23.1860 C   0  0  0  0  0  0  0  0  0  0  0  0
   12.0900   11.9530   22.7810 N   0  0  0  0  0  0  0  0  0  0  0  0
   10.0500   12.0130   23.8290 C   0  0  0  0  0  0  0  0  0  0  0  0
    8.8890   11.4600   24.2730 C   0  0  0  0  0  0  0  0  0  0  0  0
    7.9420   12.1890   24.9170 C   0  0  0  0  0  0  0  0  0  0  0  0
    7.6870   13.5160   24.5590 C   0  0  0  0  0  0  0  0  0  0  0  0
    6.7680   14.2810   25.1410 N   0  0  0  0  0  0  0  0  0  0  0  0
    6.0210   13.6300   26.2040 C   0  0  0  0  0  0  0  0  0  0  0  0
    5.0730   14.4160   26.7970 C   0  0  0  0  0  0  0  0  0  0  0  0
    4.2690   13.8210   27.8920 C   0  0  0  0  0  0  0  0  0  0  0  0
    4.5190   12.4950   28.2590 C   0  0  0  0  0  0  0  0  0  0  0  0
    5.4990   11.7520   27.6110 C   0  0  0  0  0  0  0  0  0  0  0  0
    6.2340   12.3280   26.5960 C   0  0  0  0  0  0  0  0  0  0  0  0
    7.2070   11.6080   25.9400 C   0  0  0  0  0  0  0  0  0  0  0  0
    8.6500   10.1420   24.0720 C   0  0  0  0  0  0  0  0  0  0  0  0
   10.1610    7.3900   23.0010 H   0  0  0  0  0  0  0  0  0  0  0  0
    8.5520    7.7270   22.3970 H   0  0  0  0  0  0  0  0  0  0  0  0
    8.7890    7.4820   24.1270 H   0  0  0  0  0  0  0  0  0  0  0  0
   11.4580    9.1360   22.3990 H   0  0  0  0  0  0  0  0  0  0  0  0
   12.1770   11.9200   21.7770 H   0  0  0  0  0  0  0  0  0  0  0  0
   12.1730   12.8990   23.1310 H   0  0  0  0  0  0  0  0  0  0  0  0
   10.2580   13.0680   23.9830 H   0  0  0  0  0  0  0  0  0  0  0  0
    8.2450   13.9960   23.7610 H   0  0  0  0  0  0  0  0  0  0  0  0
    4.8970   15.4420   26.4950 H   0  0  0  0  0  0  0  0  0  0  0  0
    3.5370   14.5180   28.3090 H   0  0  0  0  0  0  0  0  0  0  0  0
    3.9510   12.0290   29.0540 H   0  0  0  0  0  0  0  0  0  0  0  0
    5.8440   10.7340   27.7350 H   0  0  0  0  0  0  0  0  0  0  0  0
    7.4010   10.5750   26.2230 H   0  0  0  0  0  0  0  0  0  0  0  0
    7.7230    9.7250   24.4370 H   0  0  0  0  0  0  0  0  0  0  0  0
  1  2  1  0
  2  3  2  0
  3  4  1  0
  4  5  1  0
  4  6  2  0
  6  7  1  0
  7  8  1  0
  8  9  2  0
  9 10  1  0
 10 11  2  0
 11 12  1  0
 12 13  2  0
 13 14  1  0
 14 15  2  0
 15 16  1  0
 16 17  2  0
  7 18  2  0
 18  2  1  0
 17  8  1  0
 16 11  1  0
  1 19  1  0
  1 20  1  0
  1 21  1  0
  3 22  1  0
  5 23  1  0
  5 24  1  0
  6 25  1  0
  9 26  1  0
 12 27  1  0
 13 28  1  0
 14 29  1  0
 15 30  1  0
 17 31  1  0
 18 32  1  0
A    1
 C1 
A    2
 C2 
A    3
 C3 
A    4
 C4 
A    5
 N1 
A    6
 C5 
A    7
 C6 
A    8
 C7 
A    9
 C8 
A   10
 N2 
A   11
 C9 
A   12
 C10
A   13
 C11
A   14
 C12
A   15
 C13
A   16
 C14
A   17
 C15
A   18
 C16
A   19
 H1 
A   20
 H2 
A   21
 H3 
A   22
 H4 
A   23
 H5 
A   24
 H6 
A   25
 H7 
A   26
 H8 
A   27
 H9 
A   28
 H10
A   29
 H11
A   30
 H12
A   31
 H13
A   32
 H14
M  END
>  <ref_pdb>  (80) 
x0554_0A

>  <ref_mols>  (80) 
x0451_0A,x0554_0A,x0556_0A,x0566_0A,x0310_0A,x0416_0A

>  <original SMILES>  (80) 
Cc1cc(N)cc(-c2cnc3ccccc3c2)c1

>  <rationale>  (80) 
info cluster #5 (rank 4); hbond:H21; hydroph_interaction:D109; 

>  <cluster_rank>  (80) 
4

>  <N_interactions>  (80) 
2

>  <N_interactions_lost>  (80) 
0

>  <∆∆G>  (80) 
-6.064399

>  <comRMSD>  (80) 
0.38102

>  <N_rotatable_bonds>  (80) 
3

>  <N_unconstrained_atoms>  (80) 
1

>  <N_constrained_atoms>  (80) 
17

$$$$
PV_002090734001
     RDKit          3D

 27 29  0  0  0  0  0  0  0  0999 V2000
    9.0620    7.9030   22.9070 N   0  0  0  0  0  0  0  0  0  0  0  0
    9.1120    8.8960   23.5060 C   0  0  0  0  0  0  0  0  0  0  0  0
    9.0690   10.1870   24.2530 C   0  0  0  0  0  0  0  0  0  0  0  0
    9.9320   11.2450   24.3840 C   0  0  0  0  0  0  0  0  0  0  0  0
   11.1790   11.2070   23.7220 C   0  0  0  0  0  0  0  0  0  0  0  0
   12.0450   10.4730   24.1730 O   0  0  0  0  0  0  0  0  0  0  0  0
   11.2290   12.0600   22.6780 N   0  0  0  0  0  0  0  0  0  0  0  0
   10.6910   13.3300   22.6260 C   0  0  0  0  0  0  0  0  0  0  0  0
    9.3830   13.6550   22.5980 N   0  0  0  0  0  0  0  0  0  0  0  0
    9.2030   15.2870   22.5190 S   0  0  0  0  0  0  0  0  0  0  0  0
   10.8720   15.6290   22.5160 C   0  0  0  0  0  0  0  0  0  0  0  0
   11.5760   14.4400   22.5820 C   0  0  0  0  0  0  0  0  0  0  0  0
    9.4540   12.2140   25.1740 N   0  0  0  0  0  0  0  0  0  0  0  0
    8.2470   11.8440   25.6200 C   0  0  0  0  0  0  0  0  0  0  0  0
    7.3930   12.5160   26.4550 C   0  0  0  0  0  0  0  0  0  0  0  0
    6.1840   11.9210   26.7890 C   0  0  0  0  0  0  0  0  0  0  0  0
    5.8750   10.6730   26.2720 C   0  0  0  0  0  0  0  0  0  0  0  0
    6.7700   10.0310   25.4280 C   0  0  0  0  0  0  0  0  0  0  0  0
    7.9710   10.5910   25.0770 C   0  0  0  0  0  0  0  0  0  0  0  0
   11.4260   11.6860   21.7810 H   0  0  0  0  0  0  0  0  0  0  0  0
   11.2560   16.6270   22.4670 H   0  0  0  0  0  0  0  0  0  0  0  0
   12.6550   14.3840   22.5930 H   0  0  0  0  0  0  0  0  0  0  0  0
    9.9190   13.0820   25.4080 H   0  0  0  0  0  0  0  0  0  0  0  0
    7.6500   13.4920   26.8550 H   0  0  0  0  0  0  0  0  0  0  0  0
    5.4860   12.4290   27.4510 H   0  0  0  0  0  0  0  0  0  0  0  0
    4.9340   10.1920   26.5230 H   0  0  0  0  0  0  0  0  0  0  0  0
    6.5080    9.1010   25.0610 H   0  0  0  0  0  0  0  0  0  0  0  0
  1  2  3  0
  2  3  1  0
  3  4  2  0
  4  5  1  0
  5  6  2  0
  5  7  1  0
  7  8  1  0
  8  9  2  0
  9 10  1  0
 10 11  1  0
 11 12  2  0
  4 13  1  0
 13 14  1  0
 14 15  2  0
 15 16  1  0
 16 17  2  0
 17 18  1  0
 18 19  2  0
 19  3  1  0
 12  8  1  0
 19 14  1  0
  7 20  1  0
 11 21  1  0
 12 22  1  0
 13 23  1  0
 15 24  1  0
 16 25  1  0
 17 26  1  0
 18 27  1  0
A    1
 N1 
A    2
 C1 
A    3
 C2 
A    4
 C3 
A    5
 C4 
A    6
 O1 
A    7
 N2 
A    8
 C5 
A    9
 N3 
A   10
 S1 
A   11
 C6 
A   12
 C7 
A   13
 N4 
A   14
 C8 
A   15
 C9 
A   16
 C10
A   17
 C11
A   18
 C12
A   19
 C13
A   20
 H1 
A   21
 H2 
A   22
 H3 
A   23
 H4 
A   24
 H5 
A   25
 H6 
A   26
 H7 
A   27
 H8 
M  END
>  <ref_pdb>  (81) 
x0554_0A

>  <ref_mols>  (81) 
x0451_0A,x0554_0A,x0556_0A,x0566_0A,x0310_0A,x0416_0A

>  <original SMILES>  (81) 
N#Cc1c(C(=O)Nc2ccsn2)[nH]c2ccccc12

>  <rationale>  (81) 
info cluster #20 (rank 4); hbond:S125+C110+G108; hydroph_interaction:Y89+P107; 

>  <cluster_rank>  (81) 
4

>  <N_interactions>  (81) 
5

>  <N_interactions_lost>  (81) 
0

>  <∆∆G>  (81) 
-4.931807

>  <comRMSD>  (81) 
0.695849

>  <N_rotatable_bonds>  (81) 
2

>  <N_unconstrained_atoms>  (81) 
1

>  <N_constrained_atoms>  (81) 
18

$$$$
Z1621155477
     RDKit          3D

 29 31  0  0  0  0  0  0  0  0999 V2000
    5.1790   13.8240   28.1840 C   0  0  0  0  0  0  0  0  0  0  0  0
    6.4600   13.9240   27.7130 C   0  0  0  0  0  0  0  0  0  0  0  0
    6.9350   12.8510   26.8960 C   0  0  0  0  0  0  0  0  0  0  0  0
    6.0940   11.7780   26.6250 C   0  0  0  0  0  0  0  0  0  0  0  0
    6.4910   10.6130   25.7910 C   0  0  0  0  0  0  0  0  0  0  0  0
    7.1670   11.1290   24.6000 N   0  0  0  0  0  0  0  0  0  0  0  0
    8.4290   10.8310   24.2550 C   0  0  0  0  0  0  0  0  0  0  0  0
    9.0920    9.4990   24.2690 C   0  0  0  0  0  0  0  0  0  0  0  0
   10.6920    9.4650   23.7840 S   0  0  0  0  0  0  0  0  0  0  0  0
   10.6320   11.1840   23.5310 C   0  0  0  0  0  0  0  0  0  0  0  0
   11.6910   12.0010   23.0940 C   0  0  0  0  0  0  0  0  0  0  0  0
   11.4610   13.4740   22.9130 C   0  0  0  0  0  0  0  0  0  0  0  0
   10.2310   13.9840   23.1840 C   0  0  0  0  0  0  0  0  0  0  0  0
    9.2120   13.1570   23.6250 C   0  0  0  0  0  0  0  0  0  0  0  0
    9.3840   11.7970   23.8030 C   0  0  0  0  0  0  0  0  0  0  0  0
    4.8280   11.6810   27.0900 N   0  0  0  0  0  0  0  0  0  0  0  0
    4.3630   12.6680   27.8510 C   0  0  0  0  0  0  0  0  0  0  0  0
    4.7660   14.6160   28.8140 H   0  0  0  0  0  0  0  0  0  0  0  0
    7.0880   14.7810   27.9500 H   0  0  0  0  0  0  0  0  0  0  0  0
    7.9460   12.8920   26.5020 H   0  0  0  0  0  0  0  0  0  0  0  0
    7.2160   10.0350   26.3710 H   0  0  0  0  0  0  0  0  0  0  0  0
    5.7180    9.9100   25.5100 H   0  0  0  0  0  0  0  0  0  0  0  0
    6.7430   11.9990   24.2650 H   0  0  0  0  0  0  0  0  0  0  0  0
    8.5310    8.6280   24.5870 H   0  0  0  0  0  0  0  0  0  0  0  0
   12.6560   11.6120   22.8860 H   0  0  0  0  0  0  0  0  0  0  0  0
   12.3080   14.0540   22.5690 H   0  0  0  0  0  0  0  0  0  0  0  0
   10.0210   15.0420   23.0670 H   0  0  0  0  0  0  0  0  0  0  0  0
    8.2080   13.5300   23.8600 H   0  0  0  0  0  0  0  0  0  0  0  0
    3.3390   12.5890   28.2270 H   0  0  0  0  0  0  0  0  0  0  0  0
  1  2  2  0
  2  3  1  0
  3  4  2  0
  4  5  1  0
  5  6  1  0
  6  7  1  0
  7  8  2  0
  8  9  1  0
  9 10  1  0
 10 11  2  0
 11 12  1  0
 12 13  2  0
 13 14  1  0
 14 15  2  0
  4 16  1  0
 16 17  2  0
 17  1  1  0
 15  7  1  0
 15 10  1  0
  1 18  1  0
  2 19  1  0
  3 20  1  0
  5 21  1  0
  5 22  1  0
  6 23  1  0
  8 24  1  0
 11 25  1  0
 12 26  1  0
 13 27  1  0
 14 28  1  0
 17 29  1  0
A    1
 C1 
A    2
 C2 
A    3
 C3 
A    4
 C4 
A    5
 C5 
A    6
 N1 
A    7
 C6 
A    8
 C7 
A    9
 S1 
A   10
 C8 
A   11
 C9 
A   12
 C10
A   13
 C11
A   14
 C12
A   15
 C13
A   16
 N2 
A   17
 C14
A   18
 H1 
A   19
 H2 
A   20
 H3 
A   21
 H4 
A   22
 H5 
A   23
 H6 
A   24
 H7 
A   25
 H8 
A   26
 H9 
A   27
 H10
A   28
 H11
A   29
 H12
M  END
>  <ref_pdb>  (82) 
x0554_0A

>  <ref_mols>  (82) 
x0451_0A,x0554_0A,x0556_0A,x0566_0A,x0310_0A,x0416_0A

>  <original SMILES>  (82) 
c1ccc(CNc2csc3ccccc23)nc1

>  <rationale>  (82) 
info cluster #12 (rank 4); hbond:G127+S105; hydroph_interaction:P107; 

>  <cluster_rank>  (82) 
4

>  <N_interactions>  (82) 
3

>  <N_interactions_lost>  (82) 
0

>  <∆∆G>  (82) 
-5.183948

>  <comRMSD>  (82) 
0.759321

>  <N_rotatable_bonds>  (82) 
3

>  <N_unconstrained_atoms>  (82) 
0

>  <N_constrained_atoms>  (82) 
17

$$$$
PV_006764363793
     RDKit          3D

 28 30  0  0  0  0  0  0  0  0999 V2000
   15.1920   13.1000   28.4710 C   0  0  0  0  0  0  0  0  0  0  0  0
   14.8340   12.4730   27.1820 C   0  0  0  0  0  0  0  0  0  0  0  0
   15.6620   11.8190   26.3980 N   0  0  0  0  0  0  0  0  0  0  0  0
   15.0320   11.3460   25.2630 N   0  0  0  0  0  0  0  0  0  0  0  0
   13.7630   11.6610   25.2490 C   0  0  0  0  0  0  0  0  0  0  0  0
   12.7770   11.3860   24.3540 N   0  0  0  0  0  0  0  0  0  0  0  0
   11.9410   10.3090   24.5530 C   0  0  0  0  0  0  0  0  0  0  0  0
   12.3360    9.2710   25.0070 O   0  0  0  0  0  0  0  0  0  0  0  0
   10.5380   10.5080   24.2620 C   0  0  0  0  0  0  0  0  0  0  0  0
    9.8890   11.6220   23.8590 C   0  0  0  0  0  0  0  0  0  0  0  0
   10.4880   12.8770   23.5830 C   0  0  0  0  0  0  0  0  0  0  0  0
   11.6400   13.0240   22.8700 C   0  0  0  0  0  0  0  0  0  0  0  0
   12.0710   14.6520   22.7150 S   0  0  0  0  0  0  0  0  0  0  0  0
   10.7080   15.1390   23.6150 C   0  0  0  0  0  0  0  0  0  0  0  0
    9.9360   14.0910   24.0220 C   0  0  0  0  0  0  0  0  0  0  0  0
    8.5100   11.4620   23.7260 C   0  0  0  0  0  0  0  0  0  0  0  0
    8.1440   10.2100   24.0230 C   0  0  0  0  0  0  0  0  0  0  0  0
    9.4450    9.2110   24.4380 S   0  0  0  0  0  0  0  0  0  0  0  0
   13.2230   12.5600   26.5910 S   0  0  0  0  0  0  0  0  0  0  0  0
   16.2780   13.1720   28.5830 H   0  0  0  0  0  0  0  0  0  0  0  0
   14.7780   14.1120   28.5290 H   0  0  0  0  0  0  0  0  0  0  0  0
   14.7900   12.5220   29.3090 H   0  0  0  0  0  0  0  0  0  0  0  0
   12.6060   12.0670   23.6300 H   0  0  0  0  0  0  0  0  0  0  0  0
   12.2620   12.2620   22.4200 H   0  0  0  0  0  0  0  0  0  0  0  0
   10.5450   16.1760   23.7980 H   0  0  0  0  0  0  0  0  0  0  0  0
    9.0280   14.2020   24.6020 H   0  0  0  0  0  0  0  0  0  0  0  0
    7.8030   12.2310   23.4260 H   0  0  0  0  0  0  0  0  0  0  0  0
    7.1550    9.8520   24.0040 H   0  0  0  0  0  0  0  0  0  0  0  0
  1  2  1  0
  2  3  2  0
  3  4  1  0
  4  5  2  0
  5  6  1  0
  6  7  1  0
  7  8  2  0
  7  9  1  0
  9 10  2  0
 10 11  1  0
 11 12  2  0
 12 13  1  0
 13 14  1  0
 14 15  2  0
 10 16  1  0
 16 17  2  0
 17 18  1  0
  5 19  1  0
 19  2  1  0
 18  9  1  0
 15 11  1  0
  1 20  1  0
  1 21  1  0
  1 22  1  0
  6 23  1  0
 12 24  1  0
 14 25  1  0
 15 26  1  0
 16 27  1  0
 17 28  1  0
A    1
 C1 
A    2
 C2 
A    3
 N1 
A    4
 N2 
A    5
 C3 
A    6
 N3 
A    7
 C4 
A    8
 O1 
A    9
 C5 
A   10
 C6 
A   11
 C7 
A   12
 C8 
A   13
 S1 
A   14
 C9 
A   15
 C10
A   16
 C11
A   17
 C12
A   18
 S2 
A   19
 S3 
A   20
 H1 
A   21
 H2 
A   22
 H3 
A   23
 H4 
A   24
 H5 
A   25
 H6 
A   26
 H7 
A   27
 H8 
A   28
 H9 
M  END
>  <ref_pdb>  (83) 
x0554_0A

>  <ref_mols>  (83) 
x0451_0A,x0554_0A,x0556_0A,x0566_0A,x0310_0A,x0416_0A

>  <original SMILES>  (83) 
Cc1nnc(NC(=O)c2sccc2-c2ccsc2)s1

>  <rationale>  (83) 
info cluster #17 (rank 4); hbond:C110+G108+D109; pistack:Y89; 

>  <cluster_rank>  (83) 
4

>  <N_interactions>  (83) 
4

>  <N_interactions_lost>  (83) 
0

>  <∆∆G>  (83) 
-7.155442

>  <comRMSD>  (83) 
0.707164

>  <N_rotatable_bonds>  (83) 
4

>  <N_unconstrained_atoms>  (83) 
9

>  <N_constrained_atoms>  (83) 
11

$$$$
Z767273996
     RDKit          3D

 28 30  0  0  0  0  0  0  0  0999 V2000
   12.0810   10.1790   23.9700 O   0  0  0  0  0  0  0  0  0  0  0  0
   11.1840   10.7810   23.3920 C   0  0  0  0  0  0  0  0  0  0  0  0
   10.0600   10.2340   22.8930 N   0  0  0  0  0  0  0  0  0  0  0  0
    9.0430   10.5620   23.7980 C   0  0  0  0  0  0  0  0  0  0  0  0
    8.5270   11.8540   23.6940 C   0  0  0  0  0  0  0  0  0  0  0  0
    7.5160   12.2970   24.6410 C   0  0  0  0  0  0  0  0  0  0  0  0
    7.1330   11.3750   25.5960 C   0  0  0  0  0  0  0  0  0  0  0  0
    6.2090   11.7430   26.5260 C   0  0  0  0  0  0  0  0  0  0  0  0
    5.7470   10.7730   27.4490 N   0  0  0  0  0  0  0  0  0  0  0  0
    4.8680   11.5060   28.2100 N   0  0  0  0  0  0  0  0  0  0  0  0
    4.8590   12.7460   27.7320 C   0  0  0  0  0  0  0  0  0  0  0  0
    5.6800   12.9800   26.6660 O   0  0  0  0  0  0  0  0  0  0  0  0
    7.6540   10.1180   25.6410 C   0  0  0  0  0  0  0  0  0  0  0  0
    8.6070    9.6900   24.7550 C   0  0  0  0  0  0  0  0  0  0  0  0
   11.1950   12.2760   23.3380 C   0  0  0  0  0  0  0  0  0  0  0  0
   10.4920   12.9780   24.2680 C   0  0  0  0  0  0  0  0  0  0  0  0
   10.5590   14.3430   24.1070 C   0  0  0  0  0  0  0  0  0  0  0  0
   11.3310   14.7240   23.0330 C   0  0  0  0  0  0  0  0  0  0  0  0
   11.9740   13.3600   22.2400 S   0  0  0  0  0  0  0  0  0  0  0  0
   10.1000    9.2620   22.6070 H   0  0  0  0  0  0  0  0  0  0  0  0
    8.8670   12.5490   22.9360 H   0  0  0  0  0  0  0  0  0  0  0  0
    7.0920   13.2910   24.6080 H   0  0  0  0  0  0  0  0  0  0  0  0
    4.2770   13.5960   28.0890 H   0  0  0  0  0  0  0  0  0  0  0  0
    7.3210    9.4300   26.3950 H   0  0  0  0  0  0  0  0  0  0  0  0
    9.0060    8.6810   24.8350 H   0  0  0  0  0  0  0  0  0  0  0  0
    9.9250   12.5050   25.0640 H   0  0  0  0  0  0  0  0  0  0  0  0
   10.0510   15.0480   24.7580 H   0  0  0  0  0  0  0  0  0  0  0  0
   11.5080   15.7540   22.7300 H   0  0  0  0  0  0  0  0  0  0  0  0
  1  2  2  0
  2  3  1  0
  3  4  1  0
  4  5  2  0
  5  6  1  0
  6  7  2  0
  7  8  1  0
  8  9  2  0
  9 10  1  0
 10 11  2  0
 11 12  1  0
  7 13  1  0
 13 14  2  0
  2 15  1  0
 15 16  2  0
 16 17  1  0
 17 18  2  0
 18 19  1  0
 14  4  1  0
 12  8  1  0
 19 15  1  0
  3 20  1  0
  5 21  1  0
  6 22  1  0
 11 23  1  0
 13 24  1  0
 14 25  1  0
 16 26  1  0
 17 27  1  0
 18 28  1  0
A    1
 O1 
A    2
 C1 
A    3
 N1 
A    4
 C2 
A    5
 C3 
A    6
 C4 
A    7
 C5 
A    8
 C6 
A    9
 N2 
A   10
 N3 
A   11
 C7 
A   12
 O2 
A   13
 C8 
A   14
 C9 
A   15
 C10
A   16
 C11
A   17
 C12
A   18
 C13
A   19
 S1 
A   20
 H1 
A   21
 H2 
A   22
 H3 
A   23
 H4 
A   24
 H5 
A   25
 H6 
A   26
 H7 
A   27
 H8 
A   28
 H9 
M  END
>  <ref_pdb>  (84) 
x0554_0A

>  <ref_mols>  (84) 
x0451_0A,x0554_0A,x0556_0A,x0566_0A,x0310_0A,x0416_0A

>  <original SMILES>  (84) 
O=C(Nc1ccc(-c2nnco2)cc1)c1cccs1

>  <rationale>  (84) 
info cluster #3 (rank 4); hbond:C110+T126+G108+D109; 

>  <cluster_rank>  (84) 
4

>  <N_interactions>  (84) 
4

>  <N_interactions_lost>  (84) 
0

>  <∆∆G>  (84) 
-4.821142

>  <comRMSD>  (84) 
0.720983

>  <N_rotatable_bonds>  (84) 
3

>  <N_unconstrained_atoms>  (84) 
0

>  <N_constrained_atoms>  (84) 
20

$$$$
Z221260068
     RDKit          3D

 24 25  0  0  0  0  0  0  0  0999 V2000
    8.5900    8.9910   24.2260 C   0  0  0  0  0  0  0  0  0  0  0  0
    8.1350   10.3240   24.5350 N   0  0  0  0  0  0  0  0  0  0  0  0
    8.9730   11.3490   24.1930 C   0  0  0  0  0  0  0  0  0  0  0  0
    9.9160   11.2010   23.2520 O   0  0  0  0  0  0  0  0  0  0  0  0
    8.7320   12.4980   24.9240 C   0  0  0  0  0  0  0  0  0  0  0  0
    9.3570   13.8600   24.6650 C   0  0  0  0  0  0  0  0  0  0  0  0
   10.2560   14.0560   23.6420 C   0  0  0  0  0  0  0  0  0  0  0  0
   11.6510   14.2940   23.9200 C   0  0  0  0  0  0  0  0  0  0  0  0
   12.5300   14.5010   22.8610 C   0  0  0  0  0  0  0  0  0  0  0  0
   12.0890   14.4830   21.5480 C   0  0  0  0  0  0  0  0  0  0  0  0
   10.7510   14.2480   21.2720 C   0  0  0  0  0  0  0  0  0  0  0  0
    9.8570   14.0410   22.3190 C   0  0  0  0  0  0  0  0  0  0  0  0
    7.6280   12.2070   26.1800 S   0  0  0  0  0  0  0  0  0  0  0  0
    7.2340   10.6580   25.5310 C   0  0  0  0  0  0  0  0  0  0  0  0
    5.9260    9.8870   26.1600 S   0  0  0  0  0  0  0  0  0  0  0  0
    8.3050    8.2960   24.9990 H   0  0  0  0  0  0  0  0  0  0  0  0
    9.6810    8.9980   24.1390 H   0  0  0  0  0  0  0  0  0  0  0  0
    8.1640    8.6600   23.2770 H   0  0  0  0  0  0  0  0  0  0  0  0
    9.0950   14.7020   25.3010 H   0  0  0  0  0  0  0  0  0  0  0  0
   11.9430   14.3000   24.9740 H   0  0  0  0  0  0  0  0  0  0  0  0
   13.5650   14.6780   23.0700 H   0  0  0  0  0  0  0  0  0  0  0  0
   12.7860   14.6500   20.7310 H   0  0  0  0  0  0  0  0  0  0  0  0
   10.4050   14.2290   20.2440 H   0  0  0  0  0  0  0  0  0  0  0  0
    8.8300   13.8720   21.9820 H   0  0  0  0  0  0  0  0  0  0  0  0
  1  2  1  0
  2  3  1  0
  3  4  2  0
  3  5  1  0
  5  6  2  3
  6  7  1  0
  7  8  2  0
  8  9  1  0
  9 10  2  0
 10 11  1  0
 11 12  2  0
  5 13  1  0
 13 14  1  0
 14 15  2  0
 14  2  1  0
 12  7  1  0
  1 16  1  0
  1 17  1  0
  1 18  1  0
  6 19  1  0
  8 20  1  0
  9 21  1  0
 10 22  1  0
 11 23  1  0
 12 24  1  0
A    1
 C1 
A    2
 N1 
A    3
 C2 
A    4
 O1 
A    5
 C3 
A    6
 C4 
A    7
 C5 
A    8
 C6 
A    9
 C7 
A   10
 C8 
A   11
 C9 
A   12
 C10
A   13
 S1 
A   14
 C11
A   15
 S2 
A   16
 H1 
A   17
 H2 
A   18
 H3 
A   19
 H4 
A   20
 H5 
A   21
 H6 
A   22
 H7 
A   23
 H8 
A   24
 H9 
M  END
>  <ref_pdb>  (85) 
x0554_0A

>  <ref_mols>  (85) 
x0451_0A,x0554_0A,x0556_0A,x0566_0A,x0310_0A,x0416_0A

>  <original SMILES>  (85) 
CN1C(=O)C(=Cc2ccccc2)SC1=S

>  <rationale>  (85) 
info cluster #11 (rank 5); hydroph_interaction:Y89; 

>  <cluster_rank>  (85) 
5

>  <N_interactions>  (85) 
1

>  <N_interactions_lost>  (85) 
0

>  <∆∆G>  (85) 
-8.34474

>  <comRMSD>  (85) 
0.490346

>  <N_rotatable_bonds>  (85) 
2

>  <N_unconstrained_atoms>  (85) 
0

>  <N_constrained_atoms>  (85) 
16

$$$$
PV_003253252525
     RDKit          3D

 23 25  0  0  0  0  0  0  0  0999 V2000
    7.7900   14.5060   25.7420 Cl  0  0  0  0  0  0  0  0  0  0  0  0
    7.8480   12.8100   25.4220 C   0  0  0  0  0  0  0  0  0  0  0  0
    6.8310   11.9360   26.1210 C   0  0  0  0  0  0  0  0  0  0  0  0
    6.8450   10.5550   25.8890 C   0  0  0  0  0  0  0  0  0  0  0  0
    7.8090   10.1070   25.0120 C   0  0  0  0  0  0  0  0  0  0  0  0
    8.0070    8.8080   24.6390 O   0  0  0  0  0  0  0  0  0  0  0  0
    9.0370    8.7160   23.7440 C   0  0  0  0  0  0  0  0  0  0  0  0
    9.4590   10.0150   23.5950 C   0  0  0  0  0  0  0  0  0  0  0  0
    8.7200   10.8890   24.3760 C   0  0  0  0  0  0  0  0  0  0  0  0
    8.8100   12.2690   24.5400 C   0  0  0  0  0  0  0  0  0  0  0  0
    9.7970   12.9900   23.8640 C   0  0  0  0  0  0  0  0  0  0  0  0
    9.5240   13.5720   22.6460 C   0  0  0  0  0  0  0  0  0  0  0  0
   10.4880   14.2380   21.9960 N   0  0  0  0  0  0  0  0  0  0  0  0
   11.6980   14.3220   22.5730 C   0  0  0  0  0  0  0  0  0  0  0  0
   11.9540   13.7520   23.7950 C   0  0  0  0  0  0  0  0  0  0  0  0
   11.0030   13.0700   24.4700 N   0  0  0  0  0  0  0  0  0  0  0  0
    6.1030   12.3800   26.7950 H   0  0  0  0  0  0  0  0  0  0  0  0
    6.1420    9.8830   26.3680 H   0  0  0  0  0  0  0  0  0  0  0  0
    9.3090    7.7460   23.3510 H   0  0  0  0  0  0  0  0  0  0  0  0
   10.2530   10.2710   22.9480 H   0  0  0  0  0  0  0  0  0  0  0  0
    8.5560   13.5190   22.1690 H   0  0  0  0  0  0  0  0  0  0  0  0
   12.4610   14.8650   22.0260 H   0  0  0  0  0  0  0  0  0  0  0  0
   12.9270   13.8200   24.2640 H   0  0  0  0  0  0  0  0  0  0  0  0
  1  2  1  0
  2  3  2  0
  3  4  1  0
  4  5  2  0
  5  6  1  0
  6  7  1  0
  7  8  2  0
  8  9  1  0
  9 10  2  0
 10 11  1  0
 11 12  2  0
 12 13  1  0
 13 14  2  0
 14 15  1  0
 15 16  2  0
 10  2  1  0
  9  5  1  0
 16 11  1  0
  3 17  1  0
  4 18  1  0
  7 19  1  0
  8 20  1  0
 12 21  1  0
 14 22  1  0
 15 23  1  0
A    1
CL1 
A    2
 C1 
A    3
 C2 
A    4
 C3 
A    5
 C4 
A    6
 O1 
A    7
 C5 
A    8
 C6 
A    9
 C7 
A   10
 C8 
A   11
 C9 
A   12
 C10
A   13
 N1 
A   14
 C11
A   15
 C12
A   16
 N2 
A   17
 H1 
A   18
 H2 
A   19
 H3 
A   20
 H4 
A   21
 H5 
A   22
 H6 
A   23
 H7 
M  END
>  <ref_pdb>  (86) 
x0554_0A

>  <ref_mols>  (86) 
x0451_0A,x0554_0A,x0556_0A,x0566_0A,x0310_0A,x0416_0A

>  <original SMILES>  (86) 
Clc1ccc2occc2c1-c1cnccn1

>  <rationale>  (86) 
info cluster #13 (rank 5); 

>  <cluster_rank>  (86) 
5

>  <N_interactions>  (86) 
0

>  <N_interactions_lost>  (86) 
0

>  <∆∆G>  (86) 
-6.586809

>  <comRMSD>  (86) 
0.627482

>  <N_rotatable_bonds>  (86) 
1

>  <N_unconstrained_atoms>  (86) 
0

>  <N_constrained_atoms>  (86) 
16

$$$$
PV_003043277300
     RDKit          3D

 27 29  0  0  0  0  0  0  0  0999 V2000
   12.6390   15.2700   22.1550 C   0  0  0  0  0  0  0  0  0  0  0  0
   11.4730   14.4100   22.4450 C   0  0  0  0  0  0  0  0  0  0  0  0
   11.5290   13.0480   22.9890 C   0  0  0  0  0  0  0  0  0  0  0  0
   10.2400   12.6050   23.0800 C   0  0  0  0  0  0  0  0  0  0  0  0
    9.7510   11.3690   23.4950 C   0  0  0  0  0  0  0  0  0  0  0  0
   10.2970   10.1660   23.0220 C   0  0  0  0  0  0  0  0  0  0  0  0
    9.8430    8.9190   23.3700 C   0  0  0  0  0  0  0  0  0  0  0  0
    8.7810    8.9080   24.2460 C   0  0  0  0  0  0  0  0  0  0  0  0
    8.1910   10.0770   24.7570 C   0  0  0  0  0  0  0  0  0  0  0  0
    7.0750   10.0250   25.6740 C   0  0  0  0  0  0  0  0  0  0  0  0
    6.4680   11.1060   26.1950 N   0  0  0  0  0  0  0  0  0  0  0  0
    6.9540   12.2970   25.8160 C   0  0  0  0  0  0  0  0  0  0  0  0
    8.0260   12.4640   24.9360 C   0  0  0  0  0  0  0  0  0  0  0  0
    8.6670   11.3380   24.3890 C   0  0  0  0  0  0  0  0  0  0  0  0
    9.4170   13.6060   22.6510 N   0  0  0  0  0  0  0  0  0  0  0  0
   10.1720   14.6500   22.2820 N   0  0  0  0  0  0  0  0  0  0  0  0
   12.3630   16.3050   22.3020 H   0  0  0  0  0  0  0  0  0  0  0  0
   12.9620   15.1670   21.1150 H   0  0  0  0  0  0  0  0  0  0  0  0
   13.4650   14.9990   22.7980 H   0  0  0  0  0  0  0  0  0  0  0  0
   12.4060   12.4690   23.2630 H   0  0  0  0  0  0  0  0  0  0  0  0
   11.1300   10.2210   22.3330 H   0  0  0  0  0  0  0  0  0  0  0  0
   10.2070    7.9550   23.0500 H   0  0  0  0  0  0  0  0  0  0  0  0
    8.4080    7.9390   24.5370 H   0  0  0  0  0  0  0  0  0  0  0  0
    6.6530    9.0910   26.0000 H   0  0  0  0  0  0  0  0  0  0  0  0
    6.4520   13.1560   26.2450 H   0  0  0  0  0  0  0  0  0  0  0  0
    8.3390   13.4710   24.6920 H   0  0  0  0  0  0  0  0  0  0  0  0
    9.7170   15.4840   21.9280 H   0  0  0  0  0  0  0  0  0  0  0  0
  1  2  1  0
  2  3  2  0
  3  4  1  0
  4  5  1  0
  5  6  2  0
  6  7  1  0
  7  8  2  0
  8  9  1  0
  9 10  2  0
 10 11  1  0
 11 12  2  0
 12 13  1  0
 13 14  2  0
  4 15  2  0
 15 16  1  0
 16  2  1  0
 14  5  1  0
 14  9  1  0
  1 17  1  0
  1 18  1  0
  1 19  1  0
  3 20  1  0
  6 21  1  0
  7 22  1  0
  8 23  1  0
 10 24  1  0
 12 25  1  0
 13 26  1  0
 16 27  1  0
A    1
 C1 
A    2
 C2 
A    3
 C3 
A    4
 C4 
A    5
 C5 
A    6
 C6 
A    7
 C7 
A    8
 C8 
A    9
 C9 
A   10
 C10
A   11
 N1 
A   12
 C11
A   13
 C12
A   14
 C13
A   15
 N2 
A   16
 N3 
A   17
 H1 
A   18
 H2 
A   19
 H3 
A   20
 H4 
A   21
 H5 
A   22
 H6 
A   23
 H7 
A   24
 H8 
A   25
 H9 
A   26
 H10
A   27
 H11
M  END
>  <ref_pdb>  (87) 
x0554_0A

>  <ref_mols>  (87) 
x0451_0A,x0554_0A,x0556_0A,x0566_0A,x0310_0A,x0416_0A

>  <original SMILES>  (87) 
Cc1cc(-c2cccc3cnccc23)n[nH]1

>  <rationale>  (87) 
info cluster #14 (rank 5); hydroph_interaction:Y89+D109+V124; 

>  <cluster_rank>  (87) 
5

>  <N_interactions>  (87) 
3

>  <N_interactions_lost>  (87) 
0

>  <∆∆G>  (87) 
-6.854644

>  <comRMSD>  (87) 
0.813316

>  <N_rotatable_bonds>  (87) 
2

>  <N_unconstrained_atoms>  (87) 
0

>  <N_constrained_atoms>  (87) 
16

$$$$
PV_002917926408
     RDKit          3D

 29 31  0  0  0  0  0  0  0  0999 V2000
    5.1330    9.9290   27.3610 C   0  0  0  0  0  0  0  0  0  0  0  0
    6.1700   10.5680   26.4980 C   0  0  0  0  0  0  0  0  0  0  0  0
    6.2440   11.9490   26.5440 C   0  0  0  0  0  0  0  0  0  0  0  0
    7.1570   12.6280   25.7680 C   0  0  0  0  0  0  0  0  0  0  0  0
    8.0500   11.8800   24.8880 C   0  0  0  0  0  0  0  0  0  0  0  0
    8.9370   12.5780   24.1030 C   0  0  0  0  0  0  0  0  0  0  0  0
   10.2520   12.3040   23.8050 C   0  0  0  0  0  0  0  0  0  0  0  0
   10.6780   13.2970   22.9830 C   0  0  0  0  0  0  0  0  0  0  0  0
   11.9100   13.5290   22.3840 C   0  0  0  0  0  0  0  0  0  0  0  0
   12.0430   14.6310   21.5720 C   0  0  0  0  0  0  0  0  0  0  0  0
   10.9590   15.4620   21.4020 C   0  0  0  0  0  0  0  0  0  0  0  0
    9.7470   15.2940   21.9750 N   0  0  0  0  0  0  0  0  0  0  0  0
    9.6900   14.1980   22.7370 C   0  0  0  0  0  0  0  0  0  0  0  0
    8.6060   13.7320   23.4540 N   0  0  0  0  0  0  0  0  0  0  0  0
    7.9730   10.4970   24.8580 C   0  0  0  0  0  0  0  0  0  0  0  0
    8.7870    9.7180   24.0480 C   0  0  0  0  0  0  0  0  0  0  0  0
    9.4130    9.0300   23.3540 N   0  0  0  0  0  0  0  0  0  0  0  0
    7.0380    9.8610   25.6670 C   0  0  0  0  0  0  0  0  0  0  0  0
    4.4820    9.1840   26.9220 H   0  0  0  0  0  0  0  0  0  0  0  0
    5.6190    9.4730   28.2260 H   0  0  0  0  0  0  0  0  0  0  0  0
    4.4820   10.7080   27.7670 H   0  0  0  0  0  0  0  0  0  0  0  0
    5.5710   12.5030   27.1960 H   0  0  0  0  0  0  0  0  0  0  0  0
    7.2110   13.7090   25.8010 H   0  0  0  0  0  0  0  0  0  0  0  0
   10.8350   11.4620   24.1550 H   0  0  0  0  0  0  0  0  0  0  0  0
   12.7460   12.8920   22.5330 H   0  0  0  0  0  0  0  0  0  0  0  0
   12.9840   14.8410   21.0820 H   0  0  0  0  0  0  0  0  0  0  0  0
   11.0460   16.3410   20.7660 H   0  0  0  0  0  0  0  0  0  0  0  0
    7.7070   14.1920   23.4770 H   0  0  0  0  0  0  0  0  0  0  0  0
    6.9830    8.8030   25.6480 H   0  0  0  0  0  0  0  0  0  0  0  0
  1  2  1  0
  2  3  2  0
  3  4  1  0
  4  5  2  0
  5  6  1  0
  6  7  2  0
  7  8  1  0
  8  9  2  0
  9 10  1  0
 10 11  2  0
 11 12  1  0
 12 13  2  0
 13 14  1  0
  5 15  1  0
 15 16  1  0
 16 17  3  0
 15 18  2  0
 18  2  1  0
 14  6  1  0
 13  8  1  0
  1 19  1  0
  1 20  1  0
  1 21  1  0
  3 22  1  0
  4 23  1  0
  7 24  1  0
  9 25  1  0
 10 26  1  0
 11 27  1  0
 14 28  1  0
 18 29  1  0
A    1
 C1 
A    2
 C2 
A    3
 C3 
A    4
 C4 
A    5
 C5 
A    6
 C6 
A    7
 C7 
A    8
 C8 
A    9
 C9 
A   10
 C10
A   11
 C11
A   12
 N1 
A   13
 C12
A   14
 N2 
A   15
 C13
A   16
 C14
A   17
 N3 
A   18
 C15
A   19
 H1 
A   20
 H2 
A   21
 H3 
A   22
 H4 
A   23
 H5 
A   24
 H6 
A   25
 H7 
A   26
 H8 
A   27
 H9 
A   28
 H10
A   29
 H11
M  END
>  <ref_pdb>  (88) 
x0554_0A

>  <ref_mols>  (88) 
x0451_0A,x0554_0A,x0556_0A,x0566_0A,x0310_0A,x0416_0A

>  <original SMILES>  (88) 
Cc1ccc(-c2cc3cccnc3[nH]2)c(C#N)c1

>  <rationale>  (88) 
info cluster #2 (rank 5); hbond:S87; 

>  <cluster_rank>  (88) 
5

>  <N_interactions>  (88) 
1

>  <N_interactions_lost>  (88) 
0

>  <∆∆G>  (88) 
-6.73123

>  <comRMSD>  (88) 
0.996012

>  <N_rotatable_bonds>  (88) 
2

>  <N_unconstrained_atoms>  (88) 
0

>  <N_constrained_atoms>  (88) 
18

$$$$
Z2044782212
     RDKit          3D

 26 28  0  0  0  0  0  0  0  0999 V2000
    8.9050    9.6350   24.0250 Cl  0  0  0  0  0  0  0  0  0  0  0  0
    7.7630   10.5000   24.9980 C   0  0  0  0  0  0  0  0  0  0  0  0
    6.9870    9.7420   25.8100 C   0  0  0  0  0  0  0  0  0  0  0  0
    6.0250   10.2900   26.6470 C   0  0  0  0  0  0  0  0  0  0  0  0
    5.8490   11.6670   26.6630 C   0  0  0  0  0  0  0  0  0  0  0  0
    6.6520   12.4340   25.8260 C   0  0  0  0  0  0  0  0  0  0  0  0
    7.6180   11.8650   24.9790 C   0  0  0  0  0  0  0  0  0  0  0  0
    8.4530   12.6810   24.0920 C   0  0  0  0  0  0  0  0  0  0  0  0
    9.8960   12.4080   24.1430 C   0  0  0  0  0  0  0  0  0  0  0  0
   10.4700   13.2680   23.2570 C   0  0  0  0  0  0  0  0  0  0  0  0
   11.8910   13.3900   22.9660 C   0  0  0  0  0  0  0  0  0  0  0  0
   12.1900   14.3410   22.0190 C   0  0  0  0  0  0  0  0  0  0  0  0
   11.2350   15.1000   21.4100 C   0  0  0  0  0  0  0  0  0  0  0  0
    9.8890   14.9720   21.7080 C   0  0  0  0  0  0  0  0  0  0  0  0
    9.5090   14.0400   22.6520 C   0  0  0  0  0  0  0  0  0  0  0  0
    8.2720   13.6740   23.1740 N   0  0  0  0  0  0  0  0  0  0  0  0
    7.1380    8.7010   25.7890 H   0  0  0  0  0  0  0  0  0  0  0  0
    5.4200    9.6490   27.2840 H   0  0  0  0  0  0  0  0  0  0  0  0
    5.1090   12.1340   27.3070 H   0  0  0  0  0  0  0  0  0  0  0  0
    6.4520   13.5090   25.8940 H   0  0  0  0  0  0  0  0  0  0  0  0
   10.4200   11.6790   24.7580 H   0  0  0  0  0  0  0  0  0  0  0  0
   12.6560   12.7990   23.4470 H   0  0  0  0  0  0  0  0  0  0  0  0
   13.1950   14.5240   21.7310 H   0  0  0  0  0  0  0  0  0  0  0  0
   11.5400   15.8350   20.6660 H   0  0  0  0  0  0  0  0  0  0  0  0
    9.1590   15.6020   21.2020 H   0  0  0  0  0  0  0  0  0  0  0  0
    7.3820   14.0770   22.9150 H   0  0  0  0  0  0  0  0  0  0  0  0
  1  2  1  0
  2  3  2  0
  3  4  1  0
  4  5  2  0
  5  6  1  0
  6  7  2  0
  7  8  1  0
  8  9  2  0
  9 10  1  0
 10 11  2  0
 11 12  1  0
 12 13  2  0
 13 14  1  0
 14 15  2  0
 15 16  1  0
  7  2  1  0
 16  8  1  0
 15 10  1  0
  3 17  1  0
  4 18  1  0
  5 19  1  0
  6 20  1  0
  9 21  1  0
 11 22  1  0
 12 23  1  0
 13 24  1  0
 14 25  1  0
 16 26  1  0
A    1
CL1 
A    2
 C1 
A    3
 C2 
A    4
 C3 
A    5
 C4 
A    6
 C5 
A    7
 C6 
A    8
 C7 
A    9
 C8 
A   10
 C9 
A   11
 C10
A   12
 C11
A   13
 C12
A   14
 C13
A   15
 C14
A   16
 N1 
A   17
 H1 
A   18
 H2 
A   19
 H3 
A   20
 H4 
A   21
 H5 
A   22
 H6 
A   23
 H7 
A   24
 H8 
A   25
 H9 
A   26
 H10
M  END
>  <ref_pdb>  (89) 
x0554_0A

>  <ref_mols>  (89) 
x0451_0A,x0554_0A,x0556_0A,x0566_0A,x0310_0A,x0416_0A

>  <original SMILES>  (89) 
Clc1ccccc1-c1cc2ccccc2[nH]1

>  <rationale>  (89) 
info cluster #10 (rank 5); hbond:G127; hydroph_interaction:Y89; 

>  <cluster_rank>  (89) 
5

>  <N_interactions>  (89) 
2

>  <N_interactions_lost>  (89) 
0

>  <∆∆G>  (89) 
-5.882556

>  <comRMSD>  (89) 
0.998203

>  <N_rotatable_bonds>  (89) 
1

>  <N_unconstrained_atoms>  (89) 
0

>  <N_constrained_atoms>  (89) 
16

$$$$
Z1956654599
     RDKit          3D

 29 31  0  0  0  0  0  0  0  0999 V2000
    9.5250    8.8930   23.7650 C   0  0  0  0  0  0  0  0  0  0  0  0
    9.1100   10.2760   24.1810 C   0  0  0  0  0  0  0  0  0  0  0  0
    8.0370   10.5460   24.9090 C   0  0  0  0  0  0  0  0  0  0  0  0
    7.6170   11.8620   25.3200 C   0  0  0  0  0  0  0  0  0  0  0  0
    6.5290   12.0890   26.0860 C   0  0  0  0  0  0  0  0  0  0  0  0
    6.1160   11.1280   26.9700 C   0  0  0  0  0  0  0  0  0  0  0  0
    5.0340   11.3040   27.7900 C   0  0  0  0  0  0  0  0  0  0  0  0
    4.3670   12.5050   27.6840 C   0  0  0  0  0  0  0  0  0  0  0  0
    2.8780   12.8600   28.7620 Br  0  0  0  0  0  0  0  0  0  0  0  0
    4.8020   13.4570   26.7760 C   0  0  0  0  0  0  0  0  0  0  0  0
    5.8620   13.3020   25.9650 N   0  0  0  0  0  0  0  0  0  0  0  0
    8.3640   12.8960   24.9250 N   0  0  0  0  0  0  0  0  0  0  0  0
    9.4510   12.6900   24.2060 C   0  0  0  0  0  0  0  0  0  0  0  0
   10.2060   13.7990   23.8300 C   0  0  0  0  0  0  0  0  0  0  0  0
   11.3750   13.6490   23.0920 C   0  0  0  0  0  0  0  0  0  0  0  0
   11.7770   12.3870   22.7350 C   0  0  0  0  0  0  0  0  0  0  0  0
   11.0230   11.2720   23.0870 C   0  0  0  0  0  0  0  0  0  0  0  0
    9.8720   11.3980   23.8130 C   0  0  0  0  0  0  0  0  0  0  0  0
    9.2720    8.7020   22.7170 H   0  0  0  0  0  0  0  0  0  0  0  0
    9.0170    8.1180   24.3450 H   0  0  0  0  0  0  0  0  0  0  0  0
   10.6040    8.7610   23.8900 H   0  0  0  0  0  0  0  0  0  0  0  0
    7.3730    9.7710   25.2680 H   0  0  0  0  0  0  0  0  0  0  0  0
    6.6800   10.1930   27.0130 H   0  0  0  0  0  0  0  0  0  0  0  0
    4.7460   10.5160   28.4770 H   0  0  0  0  0  0  0  0  0  0  0  0
    4.2750   14.4050   26.6880 H   0  0  0  0  0  0  0  0  0  0  0  0
    9.8850   14.7920   24.1220 H   0  0  0  0  0  0  0  0  0  0  0  0
   11.9690   14.5110   22.8010 H   0  0  0  0  0  0  0  0  0  0  0  0
   12.6920   12.2590   22.1620 H   0  0  0  0  0  0  0  0  0  0  0  0
   11.3540   10.2890   22.7810 H   0  0  0  0  0  0  0  0  0  0  0  0
  1  2  1  0
  2  3  2  0
  3  4  1  0
  4  5  1  0
  5  6  2  0
  6  7  1  0
  7  8  2  0
  8  9  1  0
  8 10  1  0
 10 11  2  0
  4 12  2  0
 12 13  1  0
 13 14  2  0
 14 15  1  0
 15 16  2  0
 16 17  1  0
 17 18  2  0
 18  2  1  0
 11  5  1  0
 18 13  1  0
  1 19  1  0
  1 20  1  0
  1 21  1  0
  3 22  1  0
  6 23  1  0
  7 24  1  0
 10 25  1  0
 14 26  1  0
 15 27  1  0
 16 28  1  0
 17 29  1  0
A    1
 C1 
A    2
 C2 
A    3
 C3 
A    4
 C4 
A    5
 C5 
A    6
 C6 
A    7
 C7 
A    8
 C8 
A    9
BR1 
A   10
 C9 
A   11
 N1 
A   12
 N2 
A   13
 C10
A   14
 C11
A   15
 C12
A   16
 C13
A   17
 C14
A   18
 C15
A   19
 H1 
A   20
 H2 
A   21
 H3 
A   22
 H4 
A   23
 H5 
A   24
 H6 
A   25
 H7 
A   26
 H8 
A   27
 H9 
A   28
 H10
A   29
 H11
M  END
>  <ref_pdb>  (90) 
x0554_0A

>  <ref_mols>  (90) 
x0451_0A,x0554_0A,x0556_0A,x0566_0A,x0310_0A,x0416_0A

>  <original SMILES>  (90) 
Cc1cc(-c2ccc(Br)cn2)nc2ccccc12

>  <rationale>  (90) 
info cluster #0 (rank 5); hydroph_interaction:D109; 

>  <cluster_rank>  (90) 
5

>  <N_interactions>  (90) 
1

>  <N_interactions_lost>  (90) 
0

>  <∆∆G>  (90) 
-6.730005

>  <comRMSD>  (90) 
0.559733

>  <N_rotatable_bonds>  (90) 
2

>  <N_unconstrained_atoms>  (90) 
0

>  <N_constrained_atoms>  (90) 
19

$$$$
Z4918784512
     RDKit          3D

 27 29  0  0  0  0  0  0  0  0999 V2000
    8.8560    9.6070   24.3220 C   0  0  0  0  0  0  0  0  0  0  0  0
    7.8210   10.3650   25.1130 C   0  0  0  0  0  0  0  0  0  0  0  0
    6.9450    9.6440   25.8340 N   0  0  0  0  0  0  0  0  0  0  0  0
    6.0160   10.3000   26.5540 C   0  0  0  0  0  0  0  0  0  0  0  0
    5.9140   11.6730   26.5900 C   0  0  0  0  0  0  0  0  0  0  0  0
    6.8220   12.4090   25.8380 C   0  0  0  0  0  0  0  0  0  0  0  0
    7.7890   11.7360   25.0890 C   0  0  0  0  0  0  0  0  0  0  0  0
    8.7570   12.4260   24.2910 C   0  0  0  0  0  0  0  0  0  0  0  0
   10.1060   12.2190   24.2490 C   0  0  0  0  0  0  0  0  0  0  0  0
   10.6490   13.1240   23.3170 C   0  0  0  0  0  0  0  0  0  0  0  0
   11.9260   13.3950   22.8560 C   0  0  0  0  0  0  0  0  0  0  0  0
   12.0550   14.3700   21.9090 C   0  0  0  0  0  0  0  0  0  0  0  0
   11.0490   15.0800   21.4060 N   0  0  0  0  0  0  0  0  0  0  0  0
    9.8070   14.8400   21.8500 C   0  0  0  0  0  0  0  0  0  0  0  0
    9.6060   13.8640   22.8040 C   0  0  0  0  0  0  0  0  0  0  0  0
    8.4600   13.4290   23.4130 N   0  0  0  0  0  0  0  0  0  0  0  0
    9.8590    9.9910   24.5220 H   0  0  0  0  0  0  0  0  0  0  0  0
    8.8600    8.5500   24.5970 H   0  0  0  0  0  0  0  0  0  0  0  0
    8.6470    9.6710   23.2530 H   0  0  0  0  0  0  0  0  0  0  0  0
    5.3330    9.6680   27.1190 H   0  0  0  0  0  0  0  0  0  0  0  0
    5.1500   12.1590   27.1840 H   0  0  0  0  0  0  0  0  0  0  0  0
    6.7700   13.4960   25.8380 H   0  0  0  0  0  0  0  0  0  0  0  0
   10.6550   11.4890   24.8310 H   0  0  0  0  0  0  0  0  0  0  0  0
   12.7970   12.8730   23.2170 H   0  0  0  0  0  0  0  0  0  0  0  0
   13.0190   14.6290   21.5080 H   0  0  0  0  0  0  0  0  0  0  0  0
    9.0140   15.4400   21.4240 H   0  0  0  0  0  0  0  0  0  0  0  0
    7.5320   13.7920   23.2360 H   0  0  0  0  0  0  0  0  0  0  0  0
  1  2  1  0
  2  3  2  0
  3  4  1  0
  4  5  2  0
  5  6  1  0
  6  7  2  0
  7  8  1  0
  8  9  2  0
  9 10  1  0
 10 11  2  0
 11 12  1  0
 12 13  2  0
 13 14  1  0
 14 15  2  0
 15 16  1  0
  7  2  1  0
 16  8  1  0
 15 10  1  0
  1 17  1  0
  1 18  1  0
  1 19  1  0
  4 20  1  0
  5 21  1  0
  6 22  1  0
  9 23  1  0
 11 24  1  0
 12 25  1  0
 14 26  1  0
 16 27  1  0
A    1
 C1 
A    2
 C2 
A    3
 N1 
A    4
 C3 
A    5
 C4 
A    6
 C5 
A    7
 C6 
A    8
 C7 
A    9
 C8 
A   10
 C9 
A   11
 C10
A   12
 C11
A   13
 N2 
A   14
 C12
A   15
 C13
A   16
 N3 
A   17
 H1 
A   18
 H2 
A   19
 H3 
A   20
 H4 
A   21
 H5 
A   22
 H6 
A   23
 H7 
A   24
 H8 
A   25
 H9 
A   26
 H10
A   27
 H11
M  END
>  <ref_pdb>  (91) 
x0554_0A

>  <ref_mols>  (91) 
x0451_0A,x0554_0A,x0556_0A,x0566_0A,x0310_0A,x0416_0A

>  <original SMILES>  (91) 
Cc1ncccc1-c1cc2ccncc2[nH]1

>  <rationale>  (91) 
info cluster #1 (rank 5); hbond:S87+G127; 

>  <cluster_rank>  (91) 
5

>  <N_interactions>  (91) 
2

>  <N_interactions_lost>  (91) 
0

>  <∆∆G>  (91) 
-6.339726

>  <comRMSD>  (91) 
0.978489

>  <N_rotatable_bonds>  (91) 
2

>  <N_unconstrained_atoms>  (91) 
0

>  <N_constrained_atoms>  (91) 
16

$$$$
PV_002204077285
     RDKit          3D

 30 32  0  0  0  0  0  0  0  0999 V2000
   10.3980   15.1800   20.4550 N   0  0  0  0  0  0  0  0  0  0  0  0
   10.8170   14.6120   21.6200 C   0  0  0  0  0  0  0  0  0  0  0  0
   11.6570   15.2190   22.6580 C   0  0  0  0  0  0  0  0  0  0  0  0
   11.9030   14.3640   23.7270 C   0  0  0  0  0  0  0  0  0  0  0  0
   11.0490   13.2140   23.3980 N   0  0  0  0  0  0  0  0  0  0  0  0
   11.0970   12.0400   24.1320 C   0  0  0  0  0  0  0  0  0  0  0  0
   11.9680   11.8400   24.9720 O   0  0  0  0  0  0  0  0  0  0  0  0
   10.1280   11.0320   24.0150 C   0  0  0  0  0  0  0  0  0  0  0  0
   10.3600    9.8780   23.2750 C   0  0  0  0  0  0  0  0  0  0  0  0
    9.3930    8.9160   23.2190 C   0  0  0  0  0  0  0  0  0  0  0  0
    8.2210    9.0380   23.8570 N   0  0  0  0  0  0  0  0  0  0  0  0
    7.9960   10.1560   24.5710 C   0  0  0  0  0  0  0  0  0  0  0  0
    6.7470   10.3400   25.2900 C   0  0  0  0  0  0  0  0  0  0  0  0
    6.3950   11.4360   26.0380 C   0  0  0  0  0  0  0  0  0  0  0  0
    7.3510   12.4370   26.0900 C   0  0  0  0  0  0  0  0  0  0  0  0
    8.5770   12.3310   25.4400 C   0  0  0  0  0  0  0  0  0  0  0  0
    8.9090   11.1960   24.6820 C   0  0  0  0  0  0  0  0  0  0  0  0
   10.5400   13.3500   22.0780 N   0  0  0  0  0  0  0  0  0  0  0  0
   10.6210   14.6030   19.6450 H   0  0  0  0  0  0  0  0  0  0  0  0
    9.4260   15.4710   20.4710 H   0  0  0  0  0  0  0  0  0  0  0  0
   12.0460   16.2140   22.6010 H   0  0  0  0  0  0  0  0  0  0  0  0
   11.6080   14.8000   24.6880 H   0  0  0  0  0  0  0  0  0  0  0  0
   12.9460   14.0350   23.7610 H   0  0  0  0  0  0  0  0  0  0  0  0
   11.2890    9.7310   22.7510 H   0  0  0  0  0  0  0  0  0  0  0  0
    9.5240    7.9980   22.6550 H   0  0  0  0  0  0  0  0  0  0  0  0
    6.0150    9.5440   25.2340 H   0  0  0  0  0  0  0  0  0  0  0  0
    5.4380   11.5090   26.5450 H   0  0  0  0  0  0  0  0  0  0  0  0
    7.1240   13.3330   26.6680 H   0  0  0  0  0  0  0  0  0  0  0  0
    9.2790   13.1540   25.5330 H   0  0  0  0  0  0  0  0  0  0  0  0
   10.8890   12.6420   21.4210 H   0  0  0  0  0  0  0  0  0  0  0  0
  1  2  1  0
  2  3  2  0
  3  4  1  0
  4  5  1  0
  5  6  1  0
  6  7  2  0
  6  8  1  0
  8  9  2  0
  9 10  1  0
 10 11  2  0
 11 12  1  0
 12 13  2  0
 13 14  1  0
 14 15  2  0
 15 16  1  0
 16 17  2  0
  5 18  1  0
 18  2  1  0
 17  8  1  0
 17 12  1  0
  1 19  1  0
  1 20  1  0
  3 21  1  0
  4 22  1  0
  4 23  1  0
  9 24  1  0
 10 25  1  0
 13 26  1  0
 14 27  1  0
 15 28  1  0
 16 29  1  0
 18 30  1  0
A    1
 N1 
A    2
 C1 
A    3
 C2 
A    4
 C3 
A    5
 N2 
A    6
 C4 
A    7
 O1 
A    8
 C5 
A    9
 C6 
A   10
 C7 
A   11
 N3 
A   12
 C8 
A   13
 C9 
A   14
 C10
A   15
 C11
A   16
 C12
A   17
 C13
A   18
 N4 
A   19
 H1 
A   20
 H2 
A   21
 H3 
A   22
 H4 
A   23
 H5 
A   24
 H6 
A   25
 H7 
A   26
 H8 
A   27
 H9 
A   28
 H10
A   29
 H11
A   30
 H12
M  END
>  <ref_pdb>  (92) 
x0554_0A

>  <ref_mols>  (92) 
x0451_0A,x0554_0A,x0556_0A,x0566_0A,x0310_0A,x0416_0A

>  <original SMILES>  (92) 
NC1=CCN(C(=O)c2ccnc3ccccc23)N1

>  <rationale>  (92) 
info cluster #9 (rank 5); hbond:T126+G108; hydroph_interaction:Y89; pistack:H21; 

>  <cluster_rank>  (92) 
5

>  <N_interactions>  (92) 
4

>  <N_interactions_lost>  (92) 
0

>  <∆∆G>  (92) 
-6.53275

>  <comRMSD>  (92) 
0.614573

>  <N_rotatable_bonds>  (92) 
2

>  <N_unconstrained_atoms>  (92) 
1

>  <N_constrained_atoms>  (92) 
17

$$$$
Z44301054
     RDKit          3D

 25 27  0  0  0  0  0  0  0  0999 V2000
    8.1130   13.8760   24.8550 O   0  0  0  0  0  0  0  0  0  0  0  0
    9.1100   13.4180   24.3080 C   0  0  0  0  0  0  0  0  0  0  0  0
    9.9870   12.2670   24.6070 C   0  0  0  0  0  0  0  0  0  0  0  0
    9.6240   11.0570   25.1150 C   0  0  0  0  0  0  0  0  0  0  0  0
    8.3360   10.8500   25.4730 C   0  0  0  0  0  0  0  0  0  0  0  0
    7.6590    9.6970   25.1880 C   0  0  0  0  0  0  0  0  0  0  0  0
    6.0570    9.8010   25.8290 S   0  0  0  0  0  0  0  0  0  0  0  0
    6.2770   11.3450   26.4500 C   0  0  0  0  0  0  0  0  0  0  0  0
    7.5500   11.7930   26.1890 C   0  0  0  0  0  0  0  0  0  0  0  0
   11.3270   12.6750   24.2420 C   0  0  0  0  0  0  0  0  0  0  0  0
   12.3880   12.4130   24.7770 O   0  0  0  0  0  0  0  0  0  0  0  0
   11.0640   13.4440   23.1410 C   0  0  0  0  0  0  0  0  0  0  0  0
   12.0070   13.7540   22.0830 C   0  0  0  0  0  0  0  0  0  0  0  0
   11.5070   14.6230   20.9280 C   0  0  0  0  0  0  0  0  0  0  0  0
   10.1800   15.0780   20.9440 C   0  0  0  0  0  0  0  0  0  0  0  0
    9.2700   14.6850   22.1290 C   0  0  0  0  0  0  0  0  0  0  0  0
    9.7550   13.9020   23.1450 C   0  0  0  0  0  0  0  0  0  0  0  0
   10.3570   10.2620   25.2690 H   0  0  0  0  0  0  0  0  0  0  0  0
    7.9970    8.8180   24.6610 H   0  0  0  0  0  0  0  0  0  0  0  0
    5.4820   11.8530   26.9710 H   0  0  0  0  0  0  0  0  0  0  0  0
    7.8890   12.7690   26.5130 H   0  0  0  0  0  0  0  0  0  0  0  0
   12.9970   13.3740   22.1320 H   0  0  0  0  0  0  0  0  0  0  0  0
   12.1710   14.8850   20.1050 H   0  0  0  0  0  0  0  0  0  0  0  0
    9.8000   15.6970   20.1370 H   0  0  0  0  0  0  0  0  0  0  0  0
    8.2410   15.0310   22.1540 H   0  0  0  0  0  0  0  0  0  0  0  0
  1  2  2  0
  2  3  1  0
  3  4  2  3
  4  5  1  0
  5  6  2  0
  6  7  1  0
  7  8  1  0
  8  9  2  0
  3 10  1  0
 10 11  2  0
 10 12  1  0
 12 13  2  0
 13 14  1  0
 14 15  2  0
 15 16  1  0
 16 17  2  0
 17  2  1  0
  9  5  1  0
 17 12  1  0
  4 18  1  0
  6 19  1  0
  8 20  1  0
  9 21  1  0
 13 22  1  0
 14 23  1  0
 15 24  1  0
 16 25  1  0
A    1
 O1 
A    2
 C1 
A    3
 C2 
A    4
 C3 
A    5
 C4 
A    6
 C5 
A    7
 S1 
A    8
 C6 
A    9
 C7 
A   10
 C8 
A   11
 O2 
A   12
 C9 
A   13
 C10
A   14
 C11
A   15
 C12
A   16
 C13
A   17
 C14
A   18
 H1 
A   19
 H2 
A   20
 H3 
A   21
 H4 
A   22
 H5 
A   23
 H6 
A   24
 H7 
A   25
 H8 
M  END
>  <ref_pdb>  (93) 
x0554_0A

>  <ref_mols>  (93) 
x0451_0A,x0554_0A,x0556_0A,x0566_0A,x0310_0A,x0416_0A

>  <original SMILES>  (93) 
O=C1C(=Cc2ccsc2)C(=O)c2ccccc21

>  <rationale>  (93) 
info cluster #18 (rank 5); hydroph_interaction:P107; 

>  <cluster_rank>  (93) 
5

>  <N_interactions>  (93) 
1

>  <N_interactions_lost>  (93) 
0

>  <∆∆G>  (93) 
-5.778191

>  <comRMSD>  (93) 
0.825061

>  <N_rotatable_bonds>  (93) 
1

>  <N_unconstrained_atoms>  (93) 
0

>  <N_constrained_atoms>  (93) 
18

$$$$
Z3347447815
     RDKit          3D

 29 30  0  0  0  0  0  0  0  0999 V2000
   12.3300   15.4390   21.8470 C   0  0  0  0  0  0  0  0  0  0  0  0
   12.1980   14.2300   22.6990 C   0  0  0  0  0  0  0  0  0  0  0  0
   11.0750   14.0740   23.4010 C   0  0  0  0  0  0  0  0  0  0  0  0
   10.5220   12.8830   23.5940 N   0  0  0  0  0  0  0  0  0  0  0  0
    9.4230   13.1670   24.3450 C   0  0  0  0  0  0  0  0  0  0  0  0
    8.5710   12.1770   24.7680 C   0  0  0  0  0  0  0  0  0  0  0  0
    7.4330   12.3950   25.5550 C   0  0  0  0  0  0  0  0  0  0  0  0
    6.6450   11.3040   25.9300 C   0  0  0  0  0  0  0  0  0  0  0  0
    6.9960   10.0280   25.5220 C   0  0  0  0  0  0  0  0  0  0  0  0
    8.1330    9.8430   24.7400 C   0  0  0  0  0  0  0  0  0  0  0  0
    8.6550    8.2520   24.1840 S   0  0  0  0  0  0  0  0  0  0  0  0
    9.6800    8.6480   22.9050 C   0  0  0  0  0  0  0  0  0  0  0  0
    8.8960   10.9100   24.3770 C   0  0  0  0  0  0  0  0  0  0  0  0
    9.2810   14.5000   24.6180 C   0  0  0  0  0  0  0  0  0  0  0  0
   10.3590   15.0770   24.0020 N   0  0  0  0  0  0  0  0  0  0  0  0
   11.9370   15.2290   20.8470 H   0  0  0  0  0  0  0  0  0  0  0  0
   13.3690   15.7570   21.7340 H   0  0  0  0  0  0  0  0  0  0  0  0
   11.7580   16.2660   22.2770 H   0  0  0  0  0  0  0  0  0  0  0  0
   13.1010   14.0570   23.2800 H   0  0  0  0  0  0  0  0  0  0  0  0
   12.2010   13.3940   21.9910 H   0  0  0  0  0  0  0  0  0  0  0  0
    7.1310   13.3800   25.8920 H   0  0  0  0  0  0  0  0  0  0  0  0
    5.7570   11.4450   26.5390 H   0  0  0  0  0  0  0  0  0  0  0  0
    6.3780    9.1840   25.8200 H   0  0  0  0  0  0  0  0  0  0  0  0
    9.6990    9.7170   22.7230 H   0  0  0  0  0  0  0  0  0  0  0  0
   10.6910    8.3260   23.1640 H   0  0  0  0  0  0  0  0  0  0  0  0
    9.3540    8.1310   22.0110 H   0  0  0  0  0  0  0  0  0  0  0  0
    9.7800   10.7480   23.7670 H   0  0  0  0  0  0  0  0  0  0  0  0
    8.5490   15.0820   25.1720 H   0  0  0  0  0  0  0  0  0  0  0  0
   10.5880   16.0610   23.9900 H   0  0  0  0  0  0  0  0  0  0  0  0
  1  2  1  0
  2  3  1  0
  3  4  2  0
  4  5  1  0
  5  6  1  0
  6  7  2  0
  7  8  1  0
  8  9  2  0
  9 10  1  0
 10 11  1  0
 11 12  1  0
 10 13  2  0
  5 14  2  0
 14 15  1  0
 15  3  1  0
 13  6  1  0
  1 16  1  0
  1 17  1  0
  1 18  1  0
  2 19  1  0
  2 20  1  0
  7 21  1  0
  8 22  1  0
  9 23  1  0
 12 24  1  0
 12 25  1  0
 12 26  1  0
 13 27  1  0
 14 28  1  0
 15 29  1  0
A    1
 C1 
A    2
 C2 
A    3
 C3 
A    4
 N1 
A    5
 C4 
A    6
 C5 
A    7
 C6 
A    8
 C7 
A    9
 C8 
A   10
 C9 
A   11
 S1 
A   12
 C10
A   13
 C11
A   14
 C12
A   15
 N2 
A   16
 H1 
A   17
 H2 
A   18
 H3 
A   19
 H4 
A   20
 H5 
A   21
 H6 
A   22
 H7 
A   23
 H8 
A   24
 H9 
A   25
 H10
A   26
 H11
A   27
 H12
A   28
 H13
A   29
 H14
M  END
>  <ref_pdb>  (94) 
x0554_0A

>  <ref_mols>  (94) 
x0451_0A,x0554_0A,x0556_0A,x0566_0A,x0310_0A,x0416_0A

>  <original SMILES>  (94) 
CCc1nc(-c2cccc(SC)c2)c[nH]1

>  <rationale>  (94) 
info cluster #19 (rank 5); hbond:S87; hydroph_interaction:Y89; 

>  <cluster_rank>  (94) 
5

>  <N_interactions>  (94) 
3

>  <N_interactions_lost>  (94) 
0

>  <∆∆G>  (94) 
-9.704959

>  <comRMSD>  (94) 
0.602886

>  <N_rotatable_bonds>  (94) 
5

>  <N_unconstrained_atoms>  (94) 
0

>  <N_constrained_atoms>  (94) 
15

$$$$
Z373040600
     RDKit          3D

 25 27  0  0  0  0  0  0  0  0999 V2000
    5.6120   11.3790   26.5900 C   0  0  0  0  0  0  0  0  0  0  0  0
    5.9630    9.9860   26.3220 C   0  0  0  0  0  0  0  0  0  0  0  0
    7.1680    9.8020   25.5010 C   0  0  0  0  0  0  0  0  0  0  0  0
    7.8690   10.8730   25.0350 C   0  0  0  0  0  0  0  0  0  0  0  0
    9.0440   10.6290   24.2390 C   0  0  0  0  0  0  0  0  0  0  0  0
    9.1460    9.4310   23.3570 C   0  0  0  0  0  0  0  0  0  0  0  0
   10.6800    9.5330   22.6350 S   0  0  0  0  0  0  0  0  0  0  0  0
   11.0250   11.0100   23.4880 C   0  0  0  0  0  0  0  0  0  0  0  0
   12.5060   11.9360   23.4150 S   0  0  0  0  0  0  0  0  0  0  0  0
   11.8460   13.4910   23.1900 C   0  0  0  0  0  0  0  0  0  0  0  0
   11.1810   14.0510   24.1510 N   0  0  0  0  0  0  0  0  0  0  0  0
   10.7790   15.2800   23.7230 C   0  0  0  0  0  0  0  0  0  0  0  0
   11.1490   15.6310   22.4430 C   0  0  0  0  0  0  0  0  0  0  0  0
   12.0340   14.3650   21.7380 S   0  0  0  0  0  0  0  0  0  0  0  0
   10.1050   11.4660   24.2680 N   0  0  0  0  0  0  0  0  0  0  0  0
    7.4730   12.1760   25.3300 C   0  0  0  0  0  0  0  0  0  0  0  0
    6.3540   12.4360   26.1050 C   0  0  0  0  0  0  0  0  0  0  0  0
    4.7140   11.5010   27.2060 H   0  0  0  0  0  0  0  0  0  0  0  0
    5.3750    9.1740   26.7050 H   0  0  0  0  0  0  0  0  0  0  0  0
    7.5110    8.8090   25.2620 H   0  0  0  0  0  0  0  0  0  0  0  0
    8.4650    8.6220   23.1510 H   0  0  0  0  0  0  0  0  0  0  0  0
   10.2060   15.8950   24.4000 H   0  0  0  0  0  0  0  0  0  0  0  0
   10.9450   16.5440   21.9050 H   0  0  0  0  0  0  0  0  0  0  0  0
    8.0380   13.0300   24.9590 H   0  0  0  0  0  0  0  0  0  0  0  0
    6.0290   13.4410   26.3480 H   0  0  0  0  0  0  0  0  0  0  0  0
  1  2  2  0
  2  3  1  0
  3  4  2  0
  4  5  1  0
  5  6  2  0
  6  7  1  0
  7  8  1  0
  8  9  1  0
  9 10  1  0
 10 11  2  0
 11 12  1  0
 12 13  2  0
 13 14  1  0
  8 15  2  0
  4 16  1  0
 16 17  2  0
 17  1  1  0
 15  5  1  0
 14 10  1  0
  1 18  1  0
  2 19  1  0
  3 20  1  0
  6 21  1  0
 12 22  1  0
 13 23  1  0
 16 24  1  0
 17 25  1  0
A    1
 C1 
A    2
 C2 
A    3
 C3 
A    4
 C4 
A    5
 C5 
A    6
 C6 
A    7
 S1 
A    8
 C7 
A    9
 S2 
A   10
 C8 
A   11
 N1 
A   12
 C9 
A   13
 C10
A   14
 S3 
A   15
 N2 
A   16
 C11
A   17
 C12
A   18
 H1 
A   19
 H2 
A   20
 H3 
A   21
 H4 
A   22
 H5 
A   23
 H6 
A   24
 H7 
A   25
 H8 
M  END
>  <ref_pdb>  (95) 
x0554_0A

>  <ref_mols>  (95) 
x0451_0A,x0554_0A,x0556_0A,x0566_0A,x0310_0A,x0416_0A

>  <original SMILES>  (95) 
c1ccc(-c2csc(Sc3nccs3)n2)cc1

>  <rationale>  (95) 
info cluster #7 (rank 5); pistack:Y89; 

>  <cluster_rank>  (95) 
5

>  <N_interactions>  (95) 
1

>  <N_interactions_lost>  (95) 
0

>  <∆∆G>  (95) 
-7.019724

>  <comRMSD>  (95) 
0.852376

>  <N_rotatable_bonds>  (95) 
3

>  <N_unconstrained_atoms>  (95) 
0

>  <N_constrained_atoms>  (95) 
18

$$$$
PV_002996515829
     RDKit          3D

 27 29  0  0  0  0  0  0  0  0999 V2000
    6.7180   13.7910   26.0740 C   0  0  0  0  0  0  0  0  0  0  0  0
    6.8680   14.9200   25.3560 C   0  0  0  0  0  0  0  0  0  0  0  0
    6.4330   16.2210   25.7220 C   0  0  0  0  0  0  0  0  0  0  0  0
    5.3170   16.7860   25.3000 N   0  0  0  0  0  0  0  0  0  0  0  0
    5.1850   18.0520   25.8340 C   0  0  0  0  0  0  0  0  0  0  0  0
    6.2050   18.4540   26.6670 C   0  0  0  0  0  0  0  0  0  0  0  0
    7.3730   17.2130   26.7920 S   0  0  0  0  0  0  0  0  0  0  0  0
    7.1680   12.4540   25.6850 C   0  0  0  0  0  0  0  0  0  0  0  0
    6.5870   11.2950   26.1980 C   0  0  0  0  0  0  0  0  0  0  0  0
    7.0520   10.0550   25.7860 C   0  0  0  0  0  0  0  0  0  0  0  0
    8.1040    9.9650   24.8570 C   0  0  0  0  0  0  0  0  0  0  0  0
    8.6330    8.7820   24.3840 C   0  0  0  0  0  0  0  0  0  0  0  0
    9.6280    8.6690   23.4920 N   0  0  0  0  0  0  0  0  0  0  0  0
   10.1630    9.7990   23.0280 C   0  0  0  0  0  0  0  0  0  0  0  0
    9.7380   11.0440   23.4190 C   0  0  0  0  0  0  0  0  0  0  0  0
    8.6900   11.1320   24.3430 C   0  0  0  0  0  0  0  0  0  0  0  0
    8.2120   12.3570   24.7660 C   0  0  0  0  0  0  0  0  0  0  0  0
    6.2150   13.8470   27.0370 H   0  0  0  0  0  0  0  0  0  0  0  0
    7.3710   14.8540   24.3930 H   0  0  0  0  0  0  0  0  0  0  0  0
    4.3190   18.6470   25.5800 H   0  0  0  0  0  0  0  0  0  0  0  0
    6.3150   19.3920   27.1920 H   0  0  0  0  0  0  0  0  0  0  0  0
    5.7720   11.3520   26.9160 H   0  0  0  0  0  0  0  0  0  0  0  0
    6.5900    9.1690   26.1940 H   0  0  0  0  0  0  0  0  0  0  0  0
    8.2640    7.8250   24.7190 H   0  0  0  0  0  0  0  0  0  0  0  0
   10.9670    9.6750   22.3100 H   0  0  0  0  0  0  0  0  0  0  0  0
   10.2120   11.9310   23.0090 H   0  0  0  0  0  0  0  0  0  0  0  0
    8.6570   13.2700   24.3720 H   0  0  0  0  0  0  0  0  0  0  0  0
  1  2  2  3
  2  3  1  0
  3  4  2  0
  4  5  1  0
  5  6  2  0
  6  7  1  0
  1  8  1  0
  8  9  2  0
  9 10  1  0
 10 11  2  0
 11 12  1  0
 12 13  2  0
 13 14  1  0
 14 15  2  0
 15 16  1  0
 16 17  2  0
  7  3  1  0
 17  8  1  0
 16 11  1  0
  1 18  1  0
  2 19  1  0
  5 20  1  0
  6 21  1  0
  9 22  1  0
 10 23  1  0
 12 24  1  0
 14 25  1  0
 15 26  1  0
 17 27  1  0
A    1
 C1 
A    2
 C2 
A    3
 C3 
A    4
 N1 
A    5
 C4 
A    6
 C5 
A    7
 S1 
A    8
 C6 
A    9
 C7 
A   10
 C8 
A   11
 C9 
A   12
 C10
A   13
 N2 
A   14
 C11
A   15
 C12
A   16
 C13
A   17
 C14
A   18
 H1 
A   19
 H2 
A   20
 H3 
A   21
 H4 
A   22
 H5 
A   23
 H6 
A   24
 H7 
A   25
 H8 
A   26
 H9 
A   27
 H10
M  END
>  <ref_pdb>  (96) 
x0554_0A

>  <ref_mols>  (96) 
x0451_0A,x0554_0A,x0556_0A,x0566_0A,x0310_0A,x0416_0A

>  <original SMILES>  (96) 
C(=Cc1nccs1)c1ccc2cnccc2c1

>  <rationale>  (96) 
info cluster #6 (rank 5); hbond:C110; 

>  <cluster_rank>  (96) 
5

>  <N_interactions>  (96) 
1

>  <N_interactions_lost>  (96) 
0

>  <∆∆G>  (96) 
-5.712289

>  <comRMSD>  (96) 
0.872067

>  <N_rotatable_bonds>  (96) 
2

>  <N_unconstrained_atoms>  (96) 
8

>  <N_constrained_atoms>  (96) 
10

$$$$
Z3484602031
     RDKit          3D

 25 27  0  0  0  0  0  0  0  0999 V2000
   10.1490   13.0170   23.7220 F   0  0  0  0  0  0  0  0  0  0  0  0
    9.9000   11.7000   23.7330 C   0  0  0  0  0  0  0  0  0  0  0  0
   10.7520   10.8560   23.0450 C   0  0  0  0  0  0  0  0  0  0  0  0
   10.5030    9.4150   23.0270 C   0  0  0  0  0  0  0  0  0  0  0  0
    9.4640    8.8900   23.6750 C   0  0  0  0  0  0  0  0  0  0  0  0
    8.6520    9.7870   24.3580 C   0  0  0  0  0  0  0  0  0  0  0  0
    8.8260   11.1630   24.4070 C   0  0  0  0  0  0  0  0  0  0  0  0
    7.8230   11.9030   25.1870 C   0  0  0  0  0  0  0  0  0  0  0  0
    7.8140   13.3330   24.9480 N   0  0  0  0  0  0  0  0  0  0  0  0
    6.9150   14.0460   25.6310 N   0  0  0  0  0  0  0  0  0  0  0  0
    6.0810   13.4250   26.4850 C   0  0  0  0  0  0  0  0  0  0  0  0
    5.1380   14.1730   27.2010 C   0  0  0  0  0  0  0  0  0  0  0  0
    4.2600   13.5400   28.0950 C   0  0  0  0  0  0  0  0  0  0  0  0
    4.3410   12.1550   28.2560 C   0  0  0  0  0  0  0  0  0  0  0  0
    5.2720   11.4070   27.5500 C   0  0  0  0  0  0  0  0  0  0  0  0
    6.1350   12.0380   26.6740 C   0  0  0  0  0  0  0  0  0  0  0  0
    7.0080   11.2680   26.0290 N   0  0  0  0  0  0  0  0  0  0  0  0
   11.5940   11.2870   22.5280 H   0  0  0  0  0  0  0  0  0  0  0  0
   11.2050    8.8140   22.4660 H   0  0  0  0  0  0  0  0  0  0  0  0
    9.2600    7.8230   23.6760 H   0  0  0  0  0  0  0  0  0  0  0  0
    7.8000    9.4280   24.9130 H   0  0  0  0  0  0  0  0  0  0  0  0
    5.0920   15.2490   27.0590 H   0  0  0  0  0  0  0  0  0  0  0  0
    3.5290   14.1230   28.6510 H   0  0  0  0  0  0  0  0  0  0  0  0
    3.6650   11.6510   28.9440 H   0  0  0  0  0  0  0  0  0  0  0  0
    5.3280   10.3280   27.6810 H   0  0  0  0  0  0  0  0  0  0  0  0
  1  2  1  0
  2  3  2  0
  3  4  1  0
  4  5  2  0
  5  6  1  0
  6  7  2  0
  7  8  1  0
  8  9  2  0
  9 10  1  0
 10 11  2  0
 11 12  1  0
 12 13  2  0
 13 14  1  0
 14 15  2  0
 15 16  1  0
 16 17  2  0
  7  2  1  0
 17  8  1  0
 16 11  1  0
  3 18  1  0
  4 19  1  0
  5 20  1  0
  6 21  1  0
 12 22  1  0
 13 23  1  0
 14 24  1  0
 15 25  1  0
A    1
 F1 
A    2
 C1 
A    3
 C2 
A    4
 C3 
A    5
 C4 
A    6
 C5 
A    7
 C6 
A    8
 C7 
A    9
 N1 
A   10
 N2 
A   11
 C8 
A   12
 C9 
A   13
 C10
A   14
 C11
A   15
 C12
A   16
 C13
A   17
 N3 
A   18
 H1 
A   19
 H2 
A   20
 H3 
A   21
 H4 
A   22
 H5 
A   23
 H6 
A   24
 H7 
A   25
 H8 
M  END
>  <ref_pdb>  (97) 
x0554_0A

>  <ref_mols>  (97) 
x0451_0A,x0554_0A,x0556_0A,x0566_0A,x0310_0A,x0416_0A

>  <original SMILES>  (97) 
Fc1ccccc1-c1nnc2ccccc2n1

>  <rationale>  (97) 
info cluster #15 (rank 5); hbond:S105; hydroph_interaction:V124; 

>  <cluster_rank>  (97) 
5

>  <N_interactions>  (97) 
2

>  <N_interactions_lost>  (97) 
0

>  <∆∆G>  (97) 
-4.440681

>  <comRMSD>  (97) 
0.394595

>  <N_rotatable_bonds>  (97) 
1

>  <N_unconstrained_atoms>  (97) 
0

>  <N_constrained_atoms>  (97) 
17

$$$$
PV_002303942153
     RDKit          3D

 31 33  0  0  0  0  0  0  0  0999 V2000
    7.3260   12.6430   25.9850 O   0  0  0  0  0  0  0  0  0  0  0  0
    6.7660   11.5630   25.8540 C   0  0  0  0  0  0  0  0  0  0  0  0
    7.3050   10.4950   25.1600 N   0  0  0  0  0  0  0  0  0  0  0  0
    8.4830   10.7250   24.4600 C   0  0  0  0  0  0  0  0  0  0  0  0
    9.3470    9.8670   23.8020 C   0  0  0  0  0  0  0  0  0  0  0  0
   10.4930   10.4230   23.2020 C   0  0  0  0  0  0  0  0  0  0  0  0
   10.7480   11.8840   23.2800 C   0  0  0  0  0  0  0  0  0  0  0  0
   11.8550   12.5630   22.7370 C   0  0  0  0  0  0  0  0  0  0  0  0
   11.9420   13.9770   22.8920 C   0  0  0  0  0  0  0  0  0  0  0  0
   10.9440   14.6190   23.5690 C   0  0  0  0  0  0  0  0  0  0  0  0
    9.8700   13.9580   24.1050 C   0  0  0  0  0  0  0  0  0  0  0  0
    9.7620   12.6060   23.9710 C   0  0  0  0  0  0  0  0  0  0  0  0
    8.6910   12.0360   24.5270 N   0  0  0  0  0  0  0  0  0  0  0  0
    5.5390   11.4460   26.4330 N   0  0  0  0  0  0  0  0  0  0  0  0
    5.1100   10.3750   27.3370 C   0  0  0  0  0  0  0  0  0  0  0  0
    4.3240   11.0900   28.2480 C   0  0  0  0  0  0  0  0  0  0  0  0
    4.2210   12.4010   27.8710 C   0  0  0  0  0  0  0  0  0  0  0  0
    4.8900   12.7400   26.7120 C   0  0  0  0  0  0  0  0  0  0  0  0
    6.7910    9.6280   25.0200 H   0  0  0  0  0  0  0  0  0  0  0  0
    9.1810    8.7950   23.7380 H   0  0  0  0  0  0  0  0  0  0  0  0
   11.1850    9.7730   22.6860 H   0  0  0  0  0  0  0  0  0  0  0  0
   12.6470   12.0380   22.1990 H   0  0  0  0  0  0  0  0  0  0  0  0
   12.8270   14.4410   22.4410 H   0  0  0  0  0  0  0  0  0  0  0  0
   10.9250   15.6890   23.7360 H   0  0  0  0  0  0  0  0  0  0  0  0
    9.1000   14.5090   24.6390 H   0  0  0  0  0  0  0  0  0  0  0  0
    5.9900    9.8590   27.6960 H   0  0  0  0  0  0  0  0  0  0  0  0
    4.4990    9.6600   26.7790 H   0  0  0  0  0  0  0  0  0  0  0  0
    3.8520   10.6860   29.1330 H   0  0  0  0  0  0  0  0  0  0  0  0
    3.6870   13.2360   28.3450 H   0  0  0  0  0  0  0  0  0  0  0  0
    5.6610   13.4900   26.9070 H   0  0  0  0  0  0  0  0  0  0  0  0
    4.3140   13.0400   25.8430 H   0  0  0  0  0  0  0  0  0  0  0  0
  1  2  2  0
  2  3  1  0
  3  4  1  0
  4  5  2  0
  5  6  1  0
  6  7  2  0
  7  8  1  0
  8  9  2  0
  9 10  1  0
 10 11  2  0
 11 12  1  0
 12 13  2  0
  2 14  1  0
 14 15  1  0
 15 16  1  0
 16 17  2  0
 17 18  1  0
 13  4  1  0
 12  7  1  0
 18 14  1  0
  3 19  1  0
  5 20  1  0
  6 21  1  0
  8 22  1  0
  9 23  1  0
 10 24  1  0
 11 25  1  0
 15 26  1  0
 15 27  1  0
 16 28  1  0
 17 29  1  0
 18 30  1  0
 18 31  1  0
A    1
 O1 
A    2
 C1 
A    3
 N1 
A    4
 C2 
A    5
 C3 
A    6
 C4 
A    7
 C5 
A    8
 C6 
A    9
 C7 
A   10
 C8 
A   11
 C9 
A   12
 C10
A   13
 N2 
A   14
 N3 
A   15
 C11
A   16
 C12
A   17
 C13
A   18
 C14
A   19
 H1 
A   20
 H2 
A   21
 H3 
A   22
 H4 
A   23
 H5 
A   24
 H6 
A   25
 H7 
A   26
 H8 
A   27
 H9 
A   28
 H10
A   29
 H11
A   30
 H12
A   31
 H13
M  END
>  <ref_pdb>  (98) 
x0554_0A

>  <ref_mols>  (98) 
x0451_0A,x0554_0A,x0556_0A,x0566_0A,x0310_0A,x0416_0A

>  <original SMILES>  (98) 
O=C(Nc1ccc2ccccc2n1)N1CC=CC1

>  <rationale>  (98) 
info cluster #4 (rank 5); hbond:S105; hydroph_interaction:Y89; 

>  <cluster_rank>  (98) 
5

>  <N_interactions>  (98) 
2

>  <N_interactions_lost>  (98) 
0

>  <∆∆G>  (98) 
-5.177265

>  <comRMSD>  (98) 
0.495247

>  <N_rotatable_bonds>  (98) 
1

>  <N_unconstrained_atoms>  (98) 
0

>  <N_constrained_atoms>  (98) 
18

$$$$
PV_007021846068
     RDKit          3D

 27 29  0  0  0  0  0  0  0  0999 V2000
    8.8180    9.7720   24.2690 N   0  0  0  0  0  0  0  0  0  0  0  0
    7.8550   10.5030   25.0060 C   0  0  0  0  0  0  0  0  0  0  0  0
    6.9010    9.8020   25.8380 C   0  0  0  0  0  0  0  0  0  0  0  0
    5.9430   10.4600   26.5830 C   0  0  0  0  0  0  0  0  0  0  0  0
    5.8860   11.8440   26.5420 C   0  0  0  0  0  0  0  0  0  0  0  0
    6.8000   12.5430   25.7420 C   0  0  0  0  0  0  0  0  0  0  0  0
    7.7710   11.8770   24.9810 C   0  0  0  0  0  0  0  0  0  0  0  0
    8.6680   12.5290   24.1930 C   0  0  0  0  0  0  0  0  0  0  0  0
   10.0020   12.3050   24.2570 C   0  0  0  0  0  0  0  0  0  0  0  0
   10.5390   13.1410   23.3110 C   0  0  0  0  0  0  0  0  0  0  0  0
   11.8360   13.3570   22.9330 C   0  0  0  0  0  0  0  0  0  0  0  0
   12.0430   14.2730   21.9200 C   0  0  0  0  0  0  0  0  0  0  0  0
   10.9490   14.9110   21.3570 C   0  0  0  0  0  0  0  0  0  0  0  0
    9.6470   14.7330   21.7120 N   0  0  0  0  0  0  0  0  0  0  0  0
    9.5090   13.8400   22.6940 C   0  0  0  0  0  0  0  0  0  0  0  0
    8.3270   13.4390   23.2800 N   0  0  0  0  0  0  0  0  0  0  0  0
    8.4390    8.9950   23.7370 H   0  0  0  0  0  0  0  0  0  0  0  0
    9.3990   10.3780   23.6900 H   0  0  0  0  0  0  0  0  0  0  0  0
    6.9500    8.7570   25.8690 H   0  0  0  0  0  0  0  0  0  0  0  0
    5.2420    9.8990   27.1970 H   0  0  0  0  0  0  0  0  0  0  0  0
    5.1360   12.3670   27.1260 H   0  0  0  0  0  0  0  0  0  0  0  0
    6.7360   13.6300   25.7220 H   0  0  0  0  0  0  0  0  0  0  0  0
   10.5240   11.6210   24.9100 H   0  0  0  0  0  0  0  0  0  0  0  0
   12.6650   12.8400   23.4030 H   0  0  0  0  0  0  0  0  0  0  0  0
   13.0310   14.5010   21.5630 H   0  0  0  0  0  0  0  0  0  0  0  0
   11.1030   15.6330   20.5560 H   0  0  0  0  0  0  0  0  0  0  0  0
    7.3950   13.7640   23.0580 H   0  0  0  0  0  0  0  0  0  0  0  0
  1  2  1  0
  2  3  2  0
  3  4  1  0
  4  5  2  0
  5  6  1  0
  6  7  2  0
  7  8  1  0
  8  9  2  0
  9 10  1  0
 10 11  2  0
 11 12  1  0
 12 13  2  0
 13 14  1  0
 14 15  2  0
 15 16  1  0
  7  2  1  0
 16  8  1  0
 15 10  1  0
  1 17  1  0
  1 18  1  0
  3 19  1  0
  4 20  1  0
  5 21  1  0
  6 22  1  0
  9 23  1  0
 11 24  1  0
 12 25  1  0
 13 26  1  0
 16 27  1  0
A    1
 N1 
A    2
 C1 
A    3
 C2 
A    4
 C3 
A    5
 C4 
A    6
 C5 
A    7
 C6 
A    8
 C7 
A    9
 C8 
A   10
 C9 
A   11
 C10
A   12
 C11
A   13
 C12
A   14
 N2 
A   15
 C13
A   16
 N3 
A   17
 H1 
A   18
 H2 
A   19
 H3 
A   20
 H4 
A   21
 H5 
A   22
 H6 
A   23
 H7 
A   24
 H8 
A   25
 H9 
A   26
 H10
A   27
 H11
M  END
>  <ref_pdb>  (99) 
x0554_0A

>  <ref_mols>  (99) 
x0451_0A,x0554_0A,x0556_0A,x0566_0A,x0310_0A,x0416_0A

>  <original SMILES>  (99) 
Nc1ccccc1-c1cc2cccnc2[nH]1

>  <rationale>  (99) 
info cluster #16 (rank 5); hbond:G127+E106; 

>  <cluster_rank>  (99) 
5

>  <N_interactions>  (99) 
2

>  <N_interactions_lost>  (99) 
0

>  <∆∆G>  (99) 
-5.368739

>  <comRMSD>  (99) 
0.975224

>  <N_rotatable_bonds>  (99) 
2

>  <N_unconstrained_atoms>  (99) 
0

>  <N_constrained_atoms>  (99) 
16

$$$$
Z785732518
     RDKit          3D

 28 30  0  0  0  0  0  0  0  0999 V2000
    7.7670   13.2050   26.6120 C   0  0  0  0  0  0  0  0  0  0  0  0
    7.7750   12.0230   26.0090 C   0  0  0  0  0  0  0  0  0  0  0  0
    6.7410   11.0210   26.2560 C   0  0  0  0  0  0  0  0  0  0  0  0
    6.7710    9.7180   25.5740 C   0  0  0  0  0  0  0  0  0  0  0  0
    7.8420    9.4920   24.6670 C   0  0  0  0  0  0  0  0  0  0  0  0
    8.8060   10.4290   24.4290 C   0  0  0  0  0  0  0  0  0  0  0  0
    8.7810   11.6800   25.1010 C   0  0  0  0  0  0  0  0  0  0  0  0
    9.8160   12.5060   24.7820 N   0  0  0  0  0  0  0  0  0  0  0  0
   10.0120   12.4590   23.3590 C   0  0  0  0  0  0  0  0  0  0  0  0
   10.7850   13.6110   22.7990 C   0  0  0  0  0  0  0  0  0  0  0  0
   12.0820   13.4650   22.1070 C   0  0  0  0  0  0  0  0  0  0  0  0
   12.5890   14.9970   21.5880 S   0  0  0  0  0  0  0  0  0  0  0  0
   11.1920   15.6710   22.2810 C   0  0  0  0  0  0  0  0  0  0  0  0
   10.3080   14.8470   22.8980 N   0  0  0  0  0  0  0  0  0  0  0  0
   10.5960   11.1730   23.0510 N   0  0  0  0  0  0  0  0  0  0  0  0
    9.8660   10.1010   23.4460 C   0  0  0  0  0  0  0  0  0  0  0  0
   10.0470    8.9810   22.9970 O   0  0  0  0  0  0  0  0  0  0  0  0
    7.4260   14.0360   26.0030 H   0  0  0  0  0  0  0  0  0  0  0  0
    7.3060   13.2110   27.5940 H   0  0  0  0  0  0  0  0  0  0  0  0
    8.8120   13.4490   26.8210 H   0  0  0  0  0  0  0  0  0  0  0  0
    5.9210   11.2200   26.9580 H   0  0  0  0  0  0  0  0  0  0  0  0
    6.0060    9.0140   25.7800 H   0  0  0  0  0  0  0  0  0  0  0  0
    7.9550    8.5700   24.1130 H   0  0  0  0  0  0  0  0  0  0  0  0
    9.6120   13.4660   25.0490 H   0  0  0  0  0  0  0  0  0  0  0  0
    8.9780   12.3680   23.0120 H   0  0  0  0  0  0  0  0  0  0  0  0
   12.5440   12.4840   21.9970 H   0  0  0  0  0  0  0  0  0  0  0  0
   11.0360   16.7270   22.2110 H   0  0  0  0  0  0  0  0  0  0  0  0
   10.9830   11.0930   22.1130 H   0  0  0  0  0  0  0  0  0  0  0  0
  1  2  1  0
  2  3  2  0
  3  4  1  0
  4  5  2  0
  5  6  1  0
  6  7  2  0
  7  8  1  0
  8  9  1  0
  9 10  1  0
 10 11  2  0
 11 12  1  0
 12 13  1  0
 13 14  2  0
  9 15  1  0
 15 16  1  0
 16 17  2  0
  7  2  1  0
 16  6  1  0
 14 10  1  0
  1 18  1  0
  1 19  1  0
  1 20  1  0
  3 21  1  0
  4 22  1  0
  5 23  1  0
  8 24  1  0
  9 25  1  0
 11 26  1  0
 13 27  1  0
 15 28  1  0
A    1
 C1 
A    2
 C2 
A    3
 C3 
A    4
 C4 
A    5
 C5 
A    6
 C6 
A    7
 C7 
A    8
 N1 
A    9
 C8 
A   10
 C9 
A   11
 C10
A   12
 S1 
A   13
 C11
A   14
 N2 
A   15
 N3 
A   16
 C12
A   17
 O1 
A   18
 H1 
A   19
 H2 
A   20
 H3 
A   21
 H4 
A   22
 H5 
A   23
 H6 
A   24
 H7 
A   25
 H8 
A   26
 H9 
A   27
 H10
A   28
 H11
M  END
>  <ref_pdb>  (100) 
x0554_0A

>  <ref_mols>  (100) 
x0451_0A,x0554_0A,x0556_0A,x0566_0A,x0310_0A,x0416_0A

>  <original SMILES>  (100) 
Cc1cccc2c1NC(c1cscn1)NC2=O

>  <rationale>  (100) 
info cluster #8 (rank 5); hbond:S125+S87; hydroph_interaction:P107; 

>  <cluster_rank>  (100) 
5

>  <N_interactions>  (100) 
3

>  <N_interactions_lost>  (100) 
0

>  <∆∆G>  (100) 
-5.633889

>  <comRMSD>  (100) 
0.87988

>  <N_rotatable_bonds>  (100) 
2

>  <N_unconstrained_atoms>  (100) 
0

>  <N_constrained_atoms>  (100) 
17

$$$$
PV_003747517023
     RDKit          3D

 30 32  0  0  0  0  0  0  0  0999 V2000
    4.5540    9.7710   27.6440 C   0  0  0  0  0  0  0  0  0  0  0  0
    5.4360   10.7620   26.9470 C   0  0  0  0  0  0  0  0  0  0  0  0
    4.9950   12.1830   27.1790 C   0  0  0  0  0  0  0  0  0  0  0  0
    5.8750   13.1640   26.4840 C   0  0  0  0  0  0  0  0  0  0  0  0
    6.9330   12.8100   25.7360 N   0  0  0  0  0  0  0  0  0  0  0  0
    7.2590   11.4970   25.5770 C   0  0  0  0  0  0  0  0  0  0  0  0
    8.3640   11.2910   24.7810 C   0  0  0  0  0  0  0  0  0  0  0  0
    8.9220   10.0250   24.6080 C   0  0  0  0  0  0  0  0  0  0  0  0
   10.1260    9.8680   23.7420 C   0  0  0  0  0  0  0  0  0  0  0  0
   10.6740   11.1130   23.0980 C   0  0  0  0  0  0  0  0  0  0  0  0
   10.0620   12.3470   23.3060 C   0  0  0  0  0  0  0  0  0  0  0  0
   10.5740   13.5000   22.6860 C   0  0  0  0  0  0  0  0  0  0  0  0
    9.7630   14.4170   22.0380 C   0  0  0  0  0  0  0  0  0  0  0  0
   10.6210   15.3460   21.5900 N   0  0  0  0  0  0  0  0  0  0  0  0
   11.9100   15.0450   21.9320 N   0  0  0  0  0  0  0  0  0  0  0  0
   11.8840   13.9010   22.6110 N   0  0  0  0  0  0  0  0  0  0  0  0
    8.9330   12.4090   24.1320 C   0  0  0  0  0  0  0  0  0  0  0  0
    6.5420   10.4600   26.1660 C   0  0  0  0  0  0  0  0  0  0  0  0
    5.0870    9.2910   28.4710 H   0  0  0  0  0  0  0  0  0  0  0  0
    3.6700   10.2660   28.0560 H   0  0  0  0  0  0  0  0  0  0  0  0
    4.2100    9.0080   26.9390 H   0  0  0  0  0  0  0  0  0  0  0  0
    4.1400   12.4720   27.7780 H   0  0  0  0  0  0  0  0  0  0  0  0
    5.6910   14.2300   26.5530 H   0  0  0  0  0  0  0  0  0  0  0  0
    8.5060    9.1470   25.0890 H   0  0  0  0  0  0  0  0  0  0  0  0
   10.5890    8.9000   23.5840 H   0  0  0  0  0  0  0  0  0  0  0  0
   11.5420   11.0490   22.4730 H   0  0  0  0  0  0  0  0  0  0  0  0
    8.6840   14.4810   21.8660 H   0  0  0  0  0  0  0  0  0  0  0  0
   10.4400   16.1890   21.0610 H   0  0  0  0  0  0  0  0  0  0  0  0
    8.4550   13.3730   24.2950 H   0  0  0  0  0  0  0  0  0  0  0  0
    6.8350    9.4340   26.0230 H   0  0  0  0  0  0  0  0  0  0  0  0
  1  2  1  0
  2  3  2  0
  3  4  1  0
  4  5  2  0
  5  6  1  0
  6  7  1  0
  7  8  2  0
  8  9  1  0
  9 10  2  0
 10 11  1  0
 11 12  1  0
 12 13  2  0
 13 14  1  0
 14 15  1  0
 15 16  2  0
 11 17  2  0
  6 18  2  0
 18  2  1  0
 17  7  1  0
 16 12  1  0
  1 19  1  0
  1 20  1  0
  1 21  1  0
  3 22  1  0
  4 23  1  0
  8 24  1  0
  9 25  1  0
 10 26  1  0
 13 27  1  0
 14 28  1  0
 17 29  1  0
 18 30  1  0
A    1
 C1 
A    2
 C2 
A    3
 C3 
A    4
 C4 
A    5
 N1 
A    6
 C5 
A    7
 C6 
A    8
 C7 
A    9
 C8 
A   10
 C9 
A   11
 C10
A   12
 C11
A   13
 C12
A   14
 N2 
A   15
 N3 
A   16
 N4 
A   17
 C13
A   18
 C14
A   19
 H1 
A   20
 H2 
A   21
 H3 
A   22
 H4 
A   23
 H5 
A   24
 H6 
A   25
 H7 
A   26
 H8 
A   27
 H9 
A   28
 H10
A   29
 H11
A   30
 H12
M  END
>  <ref_pdb>  (101) 
x0554_0A

>  <ref_mols>  (101) 
x0451_0A,x0554_0A,x0556_0A,x0566_0A,x0310_0A,x0416_0A

>  <original SMILES>  (101) 
Cc1ccnc(-c2cccc(-c3c[nH]nn3)c2)c1

>  <rationale>  (101) 
info cluster #5 (rank 5); hbond:S87+H21; 

>  <cluster_rank>  (101) 
5

>  <N_interactions>  (101) 
2

>  <N_interactions_lost>  (101) 
0

>  <∆∆G>  (101) 
-5.736859

>  <comRMSD>  (101) 
0.84118

>  <N_rotatable_bonds>  (101) 
3

>  <N_unconstrained_atoms>  (101) 
4

>  <N_constrained_atoms>  (101) 
17

$$$$
Z166858612
     RDKit          3D

 29 31  0  0  0  0  0  0  0  0999 V2000
   11.6290   10.8220   23.6810 O   0  0  0  0  0  0  0  0  0  0  0  0
   10.4880   11.2080   23.8410 C   0  0  0  0  0  0  0  0  0  0  0  0
    9.5390   10.5460   24.5540 N   0  0  0  0  0  0  0  0  0  0  0  0
    8.5130   11.0880   25.3380 C   0  0  0  0  0  0  0  0  0  0  0  0
    8.4170   12.3700   25.8580 C   0  0  0  0  0  0  0  0  0  0  0  0
    7.3030   12.7310   26.6410 C   0  0  0  0  0  0  0  0  0  0  0  0
    6.3010   11.8170   26.8970 C   0  0  0  0  0  0  0  0  0  0  0  0
    5.1910   12.1210   27.6780 C   0  0  0  0  0  0  0  0  0  0  0  0
    4.2140   11.1640   27.9070 C   0  0  0  0  0  0  0  0  0  0  0  0
    4.3420    9.9210   27.3510 C   0  0  0  0  0  0  0  0  0  0  0  0
    5.4380    9.6770   26.5890 C   0  0  0  0  0  0  0  0  0  0  0  0
    6.4160   10.5650   26.3580 C   0  0  0  0  0  0  0  0  0  0  0  0
    7.5060   10.2200   25.6030 C   0  0  0  0  0  0  0  0  0  0  0  0
   10.0110   12.4530   23.2520 C   0  0  0  0  0  0  0  0  0  0  0  0
   10.7630   13.2360   22.3930 C   0  0  0  0  0  0  0  0  0  0  0  0
   10.0700   14.3270   21.9810 O   0  0  0  0  0  0  0  0  0  0  0  0
    8.8620   14.2660   22.5800 C   0  0  0  0  0  0  0  0  0  0  0  0
    8.7680   13.1440   23.3650 C   0  0  0  0  0  0  0  0  0  0  0  0
    9.4450    9.5620   24.3570 H   0  0  0  0  0  0  0  0  0  0  0  0
    9.1820   13.1220   25.6890 H   0  0  0  0  0  0  0  0  0  0  0  0
    7.2510   13.7380   27.0430 H   0  0  0  0  0  0  0  0  0  0  0  0
    5.0790   13.1100   28.1190 H   0  0  0  0  0  0  0  0  0  0  0  0
    3.3550   11.4060   28.5200 H   0  0  0  0  0  0  0  0  0  0  0  0
    3.5820    9.1690   27.5190 H   0  0  0  0  0  0  0  0  0  0  0  0
    5.5620    8.7650   26.1430 H   0  0  0  0  0  0  0  0  0  0  0  0
    7.5840    9.2410   25.2090 H   0  0  0  0  0  0  0  0  0  0  0  0
   11.7670   13.1460   21.9930 H   0  0  0  0  0  0  0  0  0  0  0  0
    8.1860   15.0800   22.3510 H   0  0  0  0  0  0  0  0  0  0  0  0
    7.8960   12.8740   23.9390 H   0  0  0  0  0  0  0  0  0  0  0  0
  1  2  2  0
  2  3  1  0
  3  4  1  0
  4  5  2  0
  5  6  1  0
  6  7  2  0
  7  8  1  0
  8  9  2  0
  9 10  1  0
 10 11  2  0
 11 12  1  0
 12 13  2  0
  2 14  1  0
 14 15  2  0
 15 16  1  0
 16 17  1  0
 17 18  2  0
 13  4  1  0
 12  7  1  0
 18 14  1  0
  3 19  1  0
  5 20  1  0
  6 21  1  0
  8 22  1  0
  9 23  1  0
 10 24  1  0
 11 25  1  0
 13 26  1  0
 15 27  1  0
 17 28  1  0
 18 29  1  0
A    1
 O1 
A    2
 C1 
A    3
 N1 
A    4
 C2 
A    5
 C3 
A    6
 C4 
A    7
 C5 
A    8
 C6 
A    9
 C7 
A   10
 C8 
A   11
 C9 
A   12
 C10
A   13
 C11
A   14
 C12
A   15
 C13
A   16
 O2 
A   17
 C14
A   18
 C15
A   19
 H1 
A   20
 H2 
A   21
 H3 
A   22
 H4 
A   23
 H5 
A   24
 H6 
A   25
 H7 
A   26
 H8 
A   27
 H9 
A   28
 H10
A   29
 H11
M  END
>  <ref_pdb>  (102) 
x0554_0A

>  <ref_mols>  (102) 
x0451_0A,x0554_0A,x0556_0A,x0566_0A,x0310_0A,x0416_0A

>  <original SMILES>  (102) 
O=C(Nc1ccc2ccccc2c1)c1ccoc1

>  <rationale>  (102) 
info cluster #20 (rank 5); hbond:C110+E106; hydroph_interaction:P107; 

>  <cluster_rank>  (102) 
5

>  <N_interactions>  (102) 
3

>  <N_interactions_lost>  (102) 
0

>  <∆∆G>  (102) 
-4.506994

>  <comRMSD>  (102) 
0.91532

>  <N_rotatable_bonds>  (102) 
2

>  <N_unconstrained_atoms>  (102) 
0

>  <N_constrained_atoms>  (102) 
18

$$$$
Z33546942
     RDKit          3D

 34 36  0  0  0  0  0  0  0  0999 V2000
    3.3910   12.5850   28.1970 C   0  0  0  0  0  0  0  0  0  0  0  0
    4.5830   12.3080   27.3890 C   0  0  0  0  0  0  0  0  0  0  0  0
    5.1050   11.0100   27.3270 C   0  0  0  0  0  0  0  0  0  0  0  0
    6.2210   10.8290   26.5620 C   0  0  0  0  0  0  0  0  0  0  0  0
    6.8730   11.8480   25.8370 C   0  0  0  0  0  0  0  0  0  0  0  0
    7.9720   11.7090   25.0900 C   0  0  0  0  0  0  0  0  0  0  0  0
    8.2330   10.3960   24.7540 C   0  0  0  0  0  0  0  0  0  0  0  0
    9.3710   10.2390   24.0130 C   0  0  0  0  0  0  0  0  0  0  0  0
    9.7360    8.9420   23.6160 C   0  0  0  0  0  0  0  0  0  0  0  0
    8.8440    8.1030   22.9990 N   0  0  0  0  0  0  0  0  0  0  0  0
   11.0390    8.6060   23.8460 O   0  0  0  0  0  0  0  0  0  0  0  0
   10.1480   11.3410   23.6810 C   0  0  0  0  0  0  0  0  0  0  0  0
   11.2530   11.1420   22.9940 C   0  0  0  0  0  0  0  0  0  0  0  0
   12.0310   12.2590   22.6850 C   0  0  0  0  0  0  0  0  0  0  0  0
   11.6850   13.5310   23.0420 C   0  0  0  0  0  0  0  0  0  0  0  0
   10.5250   13.7010   23.7500 C   0  0  0  0  0  0  0  0  0  0  0  0
    9.7610   12.6110   24.0780 C   0  0  0  0  0  0  0  0  0  0  0  0
    8.6760   12.7980   24.7730 N   0  0  0  0  0  0  0  0  0  0  0  0
    6.3180   13.1220   25.9210 C   0  0  0  0  0  0  0  0  0  0  0  0
    5.1900   13.3510   26.6870 C   0  0  0  0  0  0  0  0  0  0  0  0
    3.0440   11.6710   28.6860 H   0  0  0  0  0  0  0  0  0  0  0  0
    2.5820   12.9660   27.5640 H   0  0  0  0  0  0  0  0  0  0  0  0
    3.6100   13.3270   28.9700 H   0  0  0  0  0  0  0  0  0  0  0  0
    4.5980   10.2380   27.8870 H   0  0  0  0  0  0  0  0  0  0  0  0
    6.6110    9.8130   26.5300 H   0  0  0  0  0  0  0  0  0  0  0  0
    7.6590    9.5430   25.0160 H   0  0  0  0  0  0  0  0  0  0  0  0
    8.0320    7.8470   23.5410 H   0  0  0  0  0  0  0  0  0  0  0  0
    8.6560    8.2020   22.0020 H   0  0  0  0  0  0  0  0  0  0  0  0
   11.4990   10.1450   22.7090 H   0  0  0  0  0  0  0  0  0  0  0  0
   12.9500   12.1210   22.1250 H   0  0  0  0  0  0  0  0  0  0  0  0
   12.3110   14.3800   22.7730 H   0  0  0  0  0  0  0  0  0  0  0  0
   10.2100   14.6970   24.0590 H   0  0  0  0  0  0  0  0  0  0  0  0
    6.7700   13.9550   25.3840 H   0  0  0  0  0  0  0  0  0  0  0  0
    4.7820   14.3560   26.7360 H   0  0  0  0  0  0  0  0  0  0  0  0
  1  2  1  0
  2  3  2  0
  3  4  1  0
  4  5  2  0
  5  6  1  0
  6  7  2  0
  7  8  1  0
  8  9  1  0
  9 10  1  0
  9 11  2  0
  8 12  2  0
 12 13  1  0
 13 14  2  0
 14 15  1  0
 15 16  2  0
 16 17  1  0
 17 18  2  0
  5 19  1  0
 19 20  2  0
 20  2  1  0
 18  6  1  0
 17 12  1  0
  1 21  1  0
  1 22  1  0
  1 23  1  0
  3 24  1  0
  4 25  1  0
  7 26  1  0
 10 27  1  0
 10 28  1  0
 13 29  1  0
 14 30  1  0
 15 31  1  0
 16 32  1  0
 19 33  1  0
 20 34  1  0
A    1
 C1 
A    2
 C2 
A    3
 C3 
A    4
 C4 
A    5
 C5 
A    6
 C6 
A    7
 C7 
A    8
 C8 
A    9
 C9 
A   10
 N1 
A   11
 O1 
A   12
 C10
A   13
 C11
A   14
 C12
A   15
 C13
A   16
 C14
A   17
 C15
A   18
 N2 
A   19
 C16
A   20
 C17
A   21
 H1 
A   22
 H2 
A   23
 H3 
A   24
 H4 
A   25
 H5 
A   26
 H6 
A   27
 H7 
A   28
 H8 
A   29
 H9 
A   30
 H10
A   31
 H11
A   32
 H12
A   33
 H13
A   34
 H14
M  END
>  <ref_pdb>  (103) 
x0554_0A

>  <ref_mols>  (103) 
x0451_0A,x0554_0A,x0556_0A,x0566_0A,x0310_0A,x0416_0A

>  <original SMILES>  (103) 
Cc1ccc(-c2cc(C(N)=O)c3ccccc3n2)cc1

>  <rationale>  (103) 
info cluster #17 (rank 5); hbond:C110+D109+S105; 

>  <cluster_rank>  (103) 
5

>  <N_interactions>  (103) 
3

>  <N_interactions_lost>  (103) 
0

>  <∆∆G>  (103) 
-5.672281

>  <comRMSD>  (103) 
0.688471

>  <N_rotatable_bonds>  (103) 
3

>  <N_unconstrained_atoms>  (103) 
1

>  <N_constrained_atoms>  (103) 
19

$$$$
Z48978322
     RDKit          3D

 29 31  0  0  0  0  0  0  0  0999 V2000
    9.2300    9.0880   23.5300 O   0  0  0  0  0  0  0  0  0  0  0  0
    8.9880   10.2070   23.9830 C   0  0  0  0  0  0  0  0  0  0  0  0
    7.8760   10.4900   24.8730 N   0  0  0  0  0  0  0  0  0  0  0  0
    7.8760   11.8610   25.3360 C   0  0  0  0  0  0  0  0  0  0  0  0
    6.6420   12.0950   26.1080 C   0  0  0  0  0  0  0  0  0  0  0  0
    5.9310   13.2760   25.9840 C   0  0  0  0  0  0  0  0  0  0  0  0
    4.7970   13.4400   26.7460 C   0  0  0  0  0  0  0  0  0  0  0  0
    4.3620   12.4590   27.6240 C   0  0  0  0  0  0  0  0  0  0  0  0
    2.8150   12.7480   28.6460 Br  0  0  0  0  0  0  0  0  0  0  0  0
    5.0750   11.2680   27.7440 C   0  0  0  0  0  0  0  0  0  0  0  0
    6.2170   11.0930   26.9770 C   0  0  0  0  0  0  0  0  0  0  0  0
    8.0440   12.7040   24.3970 N   0  0  0  0  0  0  0  0  0  0  0  0
    9.2470   12.5970   23.8870 C   0  0  0  0  0  0  0  0  0  0  0  0
   10.0050   13.7010   23.5700 C   0  0  0  0  0  0  0  0  0  0  0  0
   11.2880   13.6210   23.0490 C   0  0  0  0  0  0  0  0  0  0  0  0
   11.8410   12.2500   22.8350 C   0  0  0  0  0  0  0  0  0  0  0  0
   11.0440   11.1410   23.1570 C   0  0  0  0  0  0  0  0  0  0  0  0
    9.7740   11.3170   23.6700 C   0  0  0  0  0  0  0  0  0  0  0  0
    6.9700   10.1370   24.5840 H   0  0  0  0  0  0  0  0  0  0  0  0
    8.7720   12.0050   25.9330 H   0  0  0  0  0  0  0  0  0  0  0  0
    6.2740   14.0460   25.2990 H   0  0  0  0  0  0  0  0  0  0  0  0
    4.3090   14.4100   26.5730 H   0  0  0  0  0  0  0  0  0  0  0  0
    4.7360   10.4930   28.4280 H   0  0  0  0  0  0  0  0  0  0  0  0
    6.7880   10.1720   27.0510 H   0  0  0  0  0  0  0  0  0  0  0  0
    7.8180   13.6480   24.6880 H   0  0  0  0  0  0  0  0  0  0  0  0
    9.6550   14.7320   23.7080 H   0  0  0  0  0  0  0  0  0  0  0  0
   11.8650   14.5110   22.8090 H   0  0  0  0  0  0  0  0  0  0  0  0
   12.8390   12.1210   22.4320 H   0  0  0  0  0  0  0  0  0  0  0  0
   11.4080   10.1350   23.0100 H   0  0  0  0  0  0  0  0  0  0  0  0
  1  2  2  0
  2  3  1  0
  3  4  1  0
  4  5  1  0
  5  6  2  0
  6  7  1  0
  7  8  2  0
  8  9  1  0
  8 10  1  0
 10 11  2  0
  4 12  1  0
 12 13  1  0
 13 14  2  0
 14 15  1  0
 15 16  2  0
 16 17  1  0
 17 18  2  0
 18  2  1  0
 11  5  1  0
 18 13  1  0
  3 19  1  0
  4 20  1  0
  6 21  1  0
  7 22  1  0
 10 23  1  0
 11 24  1  0
 12 25  1  0
 14 26  1  0
 15 27  1  0
 16 28  1  0
 17 29  1  0
A    1
 O1 
A    2
 C1 
A    3
 N1 
A    4
 C2 
A    5
 C3 
A    6
 C4 
A    7
 C5 
A    8
 C6 
A    9
BR1 
A   10
 C7 
A   11
 C8 
A   12
 N2 
A   13
 C9 
A   14
 C10
A   15
 C11
A   16
 C12
A   17
 C13
A   18
 C14
A   19
 H1 
A   20
 H2 
A   21
 H3 
A   22
 H4 
A   23
 H5 
A   24
 H6 
A   25
 H7 
A   26
 H8 
A   27
 H9 
A   28
 H10
A   29
 H11
M  END
>  <ref_pdb>  (104) 
x0554_0A

>  <ref_mols>  (104) 
x0451_0A,x0554_0A,x0556_0A,x0566_0A,x0310_0A,x0416_0A

>  <original SMILES>  (104) 
O=C1NC(c2ccc(Br)cc2)Nc2ccccc21

>  <rationale>  (104) 
info cluster #12 (rank 5); hbond:G127+S105; 

>  <cluster_rank>  (104) 
5

>  <N_interactions>  (104) 
3

>  <N_interactions_lost>  (104) 
0

>  <∆∆G>  (104) 
-3.395667

>  <comRMSD>  (104) 
0.503169

>  <N_rotatable_bonds>  (104) 
1

>  <N_unconstrained_atoms>  (104) 
0

>  <N_constrained_atoms>  (104) 
18

$$$$
PV_002237110783
     RDKit          3D

 29 30  0  0  0  0  0  0  0  0999 V2000
   11.0740   15.7530   22.8420 C   0  0  0  0  0  0  0  0  0  0  0  0
   11.2230   14.2950   22.9900 C   0  0  0  0  0  0  0  0  0  0  0  0
   12.0770   13.4380   22.4020 C   0  0  0  0  0  0  0  0  0  0  0  0
   11.8600   12.1690   22.8420 N   0  0  0  0  0  0  0  0  0  0  0  0
   10.8640   12.3140   23.6770 C   0  0  0  0  0  0  0  0  0  0  0  0
   10.2440   11.3120   24.4070 C   0  0  0  0  0  0  0  0  0  0  0  0
    9.6690   10.3860   23.6230 C   0  0  0  0  0  0  0  0  0  0  0  0
   10.3270    9.8600   22.7300 O   0  0  0  0  0  0  0  0  0  0  0  0
    8.3260   10.0630   23.9160 N   0  0  0  0  0  0  0  0  0  0  0  0
    7.5520   10.7220   24.8440 C   0  0  0  0  0  0  0  0  0  0  0  0
    6.9090    9.9240   25.7420 C   0  0  0  0  0  0  0  0  0  0  0  0
    6.0960   10.4910   26.7150 C   0  0  0  0  0  0  0  0  0  0  0  0
    5.9180   11.8790   26.8090 C   0  0  0  0  0  0  0  0  0  0  0  0
    5.0400   12.5240   27.8640 C   0  0  0  0  0  0  0  0  0  0  0  0
    4.3880   13.0590   28.6540 N   0  0  0  0  0  0  0  0  0  0  0  0
    6.6030   12.6640   25.8680 C   0  0  0  0  0  0  0  0  0  0  0  0
    7.4190   12.0980   24.8840 C   0  0  0  0  0  0  0  0  0  0  0  0
   10.4130   13.6020   23.8310 O   0  0  0  0  0  0  0  0  0  0  0  0
   10.1290   15.9920   22.3440 H   0  0  0  0  0  0  0  0  0  0  0  0
   11.8850   16.1780   22.2420 H   0  0  0  0  0  0  0  0  0  0  0  0
   11.0860   16.2340   23.8210 H   0  0  0  0  0  0  0  0  0  0  0  0
   12.8170   13.7440   21.6860 H   0  0  0  0  0  0  0  0  0  0  0  0
   10.9380   10.8300   25.0830 H   0  0  0  0  0  0  0  0  0  0  0  0
    9.5420   11.7350   25.1210 H   0  0  0  0  0  0  0  0  0  0  0  0
    8.0370    9.1130   23.6770 H   0  0  0  0  0  0  0  0  0  0  0  0
    7.0400    8.8660   25.6870 H   0  0  0  0  0  0  0  0  0  0  0  0
    5.5900    9.8360   27.4200 H   0  0  0  0  0  0  0  0  0  0  0  0
    6.5010   13.7480   25.8970 H   0  0  0  0  0  0  0  0  0  0  0  0
    7.9330   12.7370   24.1680 H   0  0  0  0  0  0  0  0  0  0  0  0
  1  2  1  0
  2  3  2  0
  3  4  1  0
  4  5  2  0
  5  6  1  0
  6  7  1  0
  7  8  2  0
  7  9  1  0
  9 10  1  0
 10 11  2  0
 11 12  1  0
 12 13  2  0
 13 14  1  0
 14 15  3  0
 13 16  1  0
 16 17  2  0
  5 18  1  0
 18  2  1  0
 17 10  1  0
  1 19  1  0
  1 20  1  0
  1 21  1  0
  3 22  1  0
  6 23  1  0
  6 24  1  0
  9 25  1  0
 11 26  1  0
 12 27  1  0
 16 28  1  0
 17 29  1  0
A    1
 C1 
A    2
 C2 
A    3
 C3 
A    4
 N1 
A    5
 C4 
A    6
 C5 
A    7
 C6 
A    8
 O1 
A    9
 N2 
A   10
 C7 
A   11
 C8 
A   12
 C9 
A   13
 C10
A   14
 C11
A   15
 N3 
A   16
 C12
A   17
 C13
A   18
 O2 
A   19
 H1 
A   20
 H2 
A   21
 H3 
A   22
 H4 
A   23
 H5 
A   24
 H6 
A   25
 H7 
A   26
 H8 
A   27
 H9 
A   28
 H10
A   29
 H11
M  END
>  <ref_pdb>  (105) 
x0554_0A

>  <ref_mols>  (105) 
x0451_0A,x0554_0A,x0556_0A,x0566_0A,x0310_0A,x0416_0A

>  <original SMILES>  (105) 
Cc1cnc(CC(=O)Nc2ccc(C#N)cc2)o1

>  <rationale>  (105) 
info cluster #3 (rank 5); hbond:C110+T126; hydroph_interaction:Y89; 

>  <cluster_rank>  (105) 
5

>  <N_interactions>  (105) 
3

>  <N_interactions_lost>  (105) 
0

>  <∆∆G>  (105) 
-4.371562

>  <comRMSD>  (105) 
0.637084

>  <N_rotatable_bonds>  (105) 
4

>  <N_unconstrained_atoms>  (105) 
0

>  <N_constrained_atoms>  (105) 
18

$$$$
PV_006978273101
     RDKit          3D

 30 32  0  0  0  0  0  0  0  0999 V2000
   12.4560   14.8720   22.1220 C   0  0  0  0  0  0  0  0  0  0  0  0
   11.4070   14.4450   22.8110 C   0  0  0  0  0  0  0  0  0  0  0  0
   10.0940   14.1510   22.1910 C   0  0  0  0  0  0  0  0  0  0  0  0
    9.6800   12.9960   23.0640 C   0  0  0  0  0  0  0  0  0  0  0  0
   10.1130   13.3740   24.3640 N   0  0  0  0  0  0  0  0  0  0  0  0
    9.4210   13.1270   25.5150 C   0  0  0  0  0  0  0  0  0  0  0  0
    9.5490   13.7430   26.5580 O   0  0  0  0  0  0  0  0  0  0  0  0
    8.4460   12.0410   25.4670 C   0  0  0  0  0  0  0  0  0  0  0  0
    7.2500   12.1940   26.1510 C   0  0  0  0  0  0  0  0  0  0  0  0
    6.3130   11.1830   26.1310 C   0  0  0  0  0  0  0  0  0  0  0  0
    6.5520   10.0150   25.4340 C   0  0  0  0  0  0  0  0  0  0  0  0
    7.7560    9.8870   24.7470 C   0  0  0  0  0  0  0  0  0  0  0  0
    8.7100   10.8700   24.7480 C   0  0  0  0  0  0  0  0  0  0  0  0
    9.7600   10.3830   23.9710 C   0  0  0  0  0  0  0  0  0  0  0  0
    9.4090    9.1370   23.5250 C   0  0  0  0  0  0  0  0  0  0  0  0
    8.1800    8.8220   23.9940 O   0  0  0  0  0  0  0  0  0  0  0  0
   11.3180   14.1770   24.2940 C   0  0  0  0  0  0  0  0  0  0  0  0
   13.3900   15.0710   22.6000 H   0  0  0  0  0  0  0  0  0  0  0  0
   12.4050   15.0300   21.0510 H   0  0  0  0  0  0  0  0  0  0  0  0
   10.2440   13.8300   21.1550 H   0  0  0  0  0  0  0  0  0  0  0  0
    9.3800   14.9760   22.2210 H   0  0  0  0  0  0  0  0  0  0  0  0
    8.6030   12.7960   23.0380 H   0  0  0  0  0  0  0  0  0  0  0  0
   10.2300   12.0910   22.7960 H   0  0  0  0  0  0  0  0  0  0  0  0
    7.0550   13.1100   26.7030 H   0  0  0  0  0  0  0  0  0  0  0  0
    5.3770   11.3020   26.6680 H   0  0  0  0  0  0  0  0  0  0  0  0
    5.8150    9.2510   25.4380 H   0  0  0  0  0  0  0  0  0  0  0  0
   10.6650   10.9080   23.7740 H   0  0  0  0  0  0  0  0  0  0  0  0
    9.8880    8.3910   22.9060 H   0  0  0  0  0  0  0  0  0  0  0  0
   11.1710   15.0950   24.8710 H   0  0  0  0  0  0  0  0  0  0  0  0
   12.1720   13.6090   24.6810 H   0  0  0  0  0  0  0  0  0  0  0  0
  1  2  2  0
  2  3  1  0
  3  4  1  0
  4  5  1  0
  5  6  1  0
  6  7  2  0
  6  8  1  0
  8  9  2  0
  9 10  1  0
 10 11  2  0
 11 12  1  0
 12 13  2  0
 13 14  1  0
 14 15  2  0
 15 16  1  0
  5 17  1  0
 17  2  1  0
 13  8  1  0
 16 12  1  0
  1 18  1  0
  1 19  1  0
  3 20  1  0
  3 21  1  0
  4 22  1  0
  4 23  1  0
  9 24  1  0
 10 25  1  0
 11 26  1  0
 14 27  1  0
 15 28  1  0
 17 29  1  0
 17 30  1  0
A    1
 C1 
A    2
 C2 
A    3
 C3 
A    4
 C4 
A    5
 N1 
A    6
 C5 
A    7
 O1 
A    8
 C6 
A    9
 C7 
A   10
 C8 
A   11
 C9 
A   12
 C10
A   13
 C11
A   14
 C12
A   15
 C13
A   16
 O2 
A   17
 C14
A   18
 H1 
A   19
 H2 
A   20
 H3 
A   21
 H4 
A   22
 H5 
A   23
 H6 
A   24
 H7 
A   25
 H8 
A   26
 H9 
A   27
 H10
A   28
 H11
A   29
 H12
A   30
 H13
M  END
>  <ref_pdb>  (106) 
x0554_0A

>  <ref_mols>  (106) 
x0451_0A,x0554_0A,x0556_0A,x0566_0A,x0310_0A,x0416_0A

>  <original SMILES>  (106) 
C=C1CCN(C(=O)c2cccc3occc23)C1

>  <rationale>  (106) 
info cluster #11 (rank 6); hydroph_interaction:Y89; 

>  <cluster_rank>  (106) 
6

>  <N_interactions>  (106) 
1

>  <N_interactions_lost>  (106) 
0

>  <∆∆G>  (106) 
-6.905259

>  <comRMSD>  (106) 
0.623332

>  <N_rotatable_bonds>  (106) 
1

>  <N_unconstrained_atoms>  (106) 
0

>  <N_constrained_atoms>  (106) 
17

$$$$
Z637708450
     RDKit          3D

 25 27  0  0  0  0  0  0  0  0999 V2000
    9.2920    9.8740   23.8570 C   0  0  0  0  0  0  0  0  0  0  0  0
    8.5900   11.0070   24.4240 N   0  0  0  0  0  0  0  0  0  0  0  0
    8.7800   12.3410   24.1610 C   0  0  0  0  0  0  0  0  0  0  0  0
    9.7410   13.0170   23.2510 C   0  0  0  0  0  0  0  0  0  0  0  0
   11.1330   12.9060   23.4060 C   0  0  0  0  0  0  0  0  0  0  0  0
   11.8590   13.5860   22.5230 C   0  0  0  0  0  0  0  0  0  0  0  0
   10.8350   14.1740   21.7510 C   0  0  0  0  0  0  0  0  0  0  0  0
   11.2070   15.4020   20.1600 I   0  0  0  0  0  0  0  0  0  0  0  0
    9.5550   13.8350   22.1820 O   0  0  0  0  0  0  0  0  0  0  0  0
    7.9750   13.1030   24.8390 N   0  0  0  0  0  0  0  0  0  0  0  0
    7.2260   12.2760   25.5790 C   0  0  0  0  0  0  0  0  0  0  0  0
    6.2130   12.6040   26.4760 C   0  0  0  0  0  0  0  0  0  0  0  0
    5.5480   11.5940   27.1510 C   0  0  0  0  0  0  0  0  0  0  0  0
    5.9090   10.2800   26.9250 C   0  0  0  0  0  0  0  0  0  0  0  0
    6.9220    9.9620   26.0340 C   0  0  0  0  0  0  0  0  0  0  0  0
    7.5750   10.9570   25.3580 C   0  0  0  0  0  0  0  0  0  0  0  0
    8.6030    9.0450   23.6890 H   0  0  0  0  0  0  0  0  0  0  0  0
    9.7440   10.1770   22.9080 H   0  0  0  0  0  0  0  0  0  0  0  0
   10.0720    9.5190   24.5390 H   0  0  0  0  0  0  0  0  0  0  0  0
   11.5780   12.3120   24.1910 H   0  0  0  0  0  0  0  0  0  0  0  0
   12.9240   13.6720   22.4200 H   0  0  0  0  0  0  0  0  0  0  0  0
    5.9540   13.6430   26.6350 H   0  0  0  0  0  0  0  0  0  0  0  0
    4.7530   11.8320   27.8530 H   0  0  0  0  0  0  0  0  0  0  0  0
    5.3880    9.4900   27.4600 H   0  0  0  0  0  0  0  0  0  0  0  0
    7.1930    8.9480   25.8790 H   0  0  0  0  0  0  0  0  0  0  0  0
  1  2  1  0
  2  3  1  0
  3  4  1  0
  4  5  2  0
  5  6  1  0
  6  7  2  0
  7  8  1  0
  7  9  1  0
  3 10  2  0
 10 11  1  0
 11 12  2  0
 12 13  1  0
 13 14  2  0
 14 15  1  0
 15 16  2  0
 16  2  1  0
  9  4  1  0
 16 11  1  0
  1 17  1  0
  1 18  1  0
  1 19  1  0
  5 20  1  0
  6 21  1  0
 12 22  1  0
 13 23  1  0
 14 24  1  0
 15 25  1  0
A    1
 C1 
A    2
 N1 
A    3
 C2 
A    4
 C3 
A    5
 C4 
A    6
 C5 
A    7
 C6 
A    8
 I1 
A    9
 O1 
A   10
 N2 
A   11
 C7 
A   12
 C8 
A   13
 C9 
A   14
 C10
A   15
 C11
A   16
 C12
A   17
 H1 
A   18
 H2 
A   19
 H3 
A   20
 H4 
A   21
 H5 
A   22
 H6 
A   23
 H7 
A   24
 H8 
A   25
 H9 
M  END
>  <ref_pdb>  (107) 
x0554_0A

>  <ref_mols>  (107) 
x0451_0A,x0554_0A,x0556_0A,x0566_0A,x0310_0A,x0416_0A

>  <original SMILES>  (107) 
Cn1c(-c2ccc(I)o2)nc2ccccc21

>  <rationale>  (107) 
info cluster #13 (rank 6); 

>  <cluster_rank>  (107) 
6

>  <N_interactions>  (107) 
0

>  <N_interactions_lost>  (107) 
0

>  <∆∆G>  (107) 
-7.586288

>  <comRMSD>  (107) 
0.912783

>  <N_rotatable_bonds>  (107) 
2

>  <N_unconstrained_atoms>  (107) 
0

>  <N_constrained_atoms>  (107) 
17

$$$$
PV_005061289798
     RDKit          3D

 27 29  0  0  0  0  0  0  0  0999 V2000
   10.5640   13.9300   23.4670 C   0  0  0  0  0  0  0  0  0  0  0  0
   10.1840   12.8000   23.5940 C   0  0  0  0  0  0  0  0  0  0  0  0
    9.7840   11.4270   23.6970 C   0  0  0  0  0  0  0  0  0  0  0  0
   10.5990   10.5270   23.0380 C   0  0  0  0  0  0  0  0  0  0  0  0
   10.3250    9.1730   23.0480 C   0  0  0  0  0  0  0  0  0  0  0  0
    9.2220    8.6960   23.7260 C   0  0  0  0  0  0  0  0  0  0  0  0
    8.4040    9.5920   24.3960 C   0  0  0  0  0  0  0  0  0  0  0  0
    8.6650   10.9710   24.3980 C   0  0  0  0  0  0  0  0  0  0  0  0
    7.7640   11.8360   25.1240 C   0  0  0  0  0  0  0  0  0  0  0  0
    7.8180   13.1650   24.9240 N   0  0  0  0  0  0  0  0  0  0  0  0
    6.9610   13.9650   25.6140 N   0  0  0  0  0  0  0  0  0  0  0  0
    6.0950   13.4050   26.4690 C   0  0  0  0  0  0  0  0  0  0  0  0
    5.1980   14.1780   27.1970 C   0  0  0  0  0  0  0  0  0  0  0  0
    4.2980   13.5880   28.0840 C   0  0  0  0  0  0  0  0  0  0  0  0
    4.2990   12.2060   28.2430 C   0  0  0  0  0  0  0  0  0  0  0  0
    5.1980   11.4310   27.5140 C   0  0  0  0  0  0  0  0  0  0  0  0
    6.0930   12.0100   26.6310 C   0  0  0  0  0  0  0  0  0  0  0  0
    6.9240   11.2270   25.9630 N   0  0  0  0  0  0  0  0  0  0  0  0
   10.9260   14.9260   23.3490 H   0  0  0  0  0  0  0  0  0  0  0  0
   11.4610   10.8960   22.5070 H   0  0  0  0  0  0  0  0  0  0  0  0
   10.9760    8.4960   22.5290 H   0  0  0  0  0  0  0  0  0  0  0  0
    8.9960    7.6330   23.7380 H   0  0  0  0  0  0  0  0  0  0  0  0
    7.5400    9.2120   24.9350 H   0  0  0  0  0  0  0  0  0  0  0  0
    5.2030   15.2570   27.0680 H   0  0  0  0  0  0  0  0  0  0  0  0
    3.6030   14.2050   28.6480 H   0  0  0  0  0  0  0  0  0  0  0  0
    3.6030   11.7320   28.9310 H   0  0  0  0  0  0  0  0  0  0  0  0
    5.2020   10.3480   27.6360 H   0  0  0  0  0  0  0  0  0  0  0  0
  1  2  3  0
  2  3  1  0
  3  4  2  0
  4  5  1  0
  5  6  2  0
  6  7  1  0
  7  8  2  0
  8  9  1  0
  9 10  2  0
 10 11  1  0
 11 12  2  0
 12 13  1  0
 13 14  2  0
 14 15  1  0
 15 16  2  0
 16 17  1  0
 17 18  2  0
  8  3  1  0
 18  9  1  0
 17 12  1  0
  1 19  1  0
  4 20  1  0
  5 21  1  0
  6 22  1  0
  7 23  1  0
 13 24  1  0
 14 25  1  0
 15 26  1  0
 16 27  1  0
A    1
 C1 
A    2
 C2 
A    3
 C3 
A    4
 C4 
A    5
 C5 
A    6
 C6 
A    7
 C7 
A    8
 C8 
A    9
 C9 
A   10
 N1 
A   11
 N2 
A   12
 C10
A   13
 C11
A   14
 C12
A   15
 C13
A   16
 C14
A   17
 C15
A   18
 N3 
A   19
 H1 
A   20
 H2 
A   21
 H3 
A   22
 H4 
A   23
 H5 
A   24
 H6 
A   25
 H7 
A   26
 H8 
A   27
 H9 
M  END
>  <ref_pdb>  (108) 
x0554_0A

>  <ref_mols>  (108) 
x0451_0A,x0554_0A,x0556_0A,x0566_0A,x0310_0A,x0416_0A

>  <original SMILES>  (108) 
C#Cc1ccccc1-c1nnc2ccccc2n1

>  <rationale>  (108) 
info cluster #14 (rank 6); hydroph_interaction:D109+V124; 

>  <cluster_rank>  (108) 
6

>  <N_interactions>  (108) 
2

>  <N_interactions_lost>  (108) 
0

>  <∆∆G>  (108) 
-5.567985

>  <comRMSD>  (108) 
0.386229

>  <N_rotatable_bonds>  (108) 
1

>  <N_unconstrained_atoms>  (108) 
0

>  <N_constrained_atoms>  (108) 
18

$$$$
PV_003024590825
     RDKit          3D

 25 26  0  0  0  0  0  0  0  0999 V2000
    6.7200   11.3200   26.5170 C   0  0  0  0  0  0  0  0  0  0  0  0
    6.7680    9.7180   25.7310 S   0  0  0  0  0  0  0  0  0  0  0  0
    8.1690    9.9350   24.6940 C   0  0  0  0  0  0  0  0  0  0  0  0
    8.8140    8.8160   24.0830 C   0  0  0  0  0  0  0  0  0  0  0  0
    9.9140    9.0630   23.2760 C   0  0  0  0  0  0  0  0  0  0  0  0
   10.3570   10.3360   23.0780 C   0  0  0  0  0  0  0  0  0  0  0  0
    9.7330   11.4200   23.6650 C   0  0  0  0  0  0  0  0  0  0  0  0
   10.2270   12.6710   23.3940 C   0  0  0  0  0  0  0  0  0  0  0  0
    9.5520   13.8670   23.5730 C   0  0  0  0  0  0  0  0  0  0  0  0
   10.2440   14.9320   23.1740 N   0  0  0  0  0  0  0  0  0  0  0  0
   11.4510   14.5670   22.6810 C   0  0  0  0  0  0  0  0  0  0  0  0
   12.3710   15.4070   22.1350 C   0  0  0  0  0  0  0  0  0  0  0  0
   11.7920   12.9050   22.7470 S   0  0  0  0  0  0  0  0  0  0  0  0
    8.6410   11.2120   24.4730 C   0  0  0  0  0  0  0  0  0  0  0  0
    7.7230   11.6680   26.7650 H   0  0  0  0  0  0  0  0  0  0  0  0
    6.1260   11.2870   27.4350 H   0  0  0  0  0  0  0  0  0  0  0  0
    6.2630   12.0400   25.8330 H   0  0  0  0  0  0  0  0  0  0  0  0
    8.4640    7.8070   24.2410 H   0  0  0  0  0  0  0  0  0  0  0  0
   10.4330    8.2460   22.7970 H   0  0  0  0  0  0  0  0  0  0  0  0
   11.2110   10.5040   22.4460 H   0  0  0  0  0  0  0  0  0  0  0  0
    8.5550   13.9910   23.9780 H   0  0  0  0  0  0  0  0  0  0  0  0
   12.1370   16.4480   22.2740 H   0  0  0  0  0  0  0  0  0  0  0  0
   13.3660   15.2910   22.5120 H   0  0  0  0  0  0  0  0  0  0  0  0
   12.5210   15.3520   21.0640 H   0  0  0  0  0  0  0  0  0  0  0  0
    8.1500   12.0620   24.9340 H   0  0  0  0  0  0  0  0  0  0  0  0
  1  2  1  0
  2  3  1  0
  3  4  2  0
  4  5  1  0
  5  6  2  0
  6  7  1  0
  7  8  1  0
  8  9  2  0
  9 10  1  0
 10 11  2  0
 11 12  1  0
 11 13  1  0
  7 14  2  0
 14  3  1  0
 13  8  1  0
  1 15  1  0
  1 16  1  0
  1 17  1  0
  4 18  1  0
  5 19  1  0
  6 20  1  0
  9 21  1  0
 12 22  1  0
 12 23  1  0
 12 24  1  0
 14 25  1  0
A    1
 C1 
A    2
 S1 
A    3
 C2 
A    4
 C3 
A    5
 C4 
A    6
 C5 
A    7
 C6 
A    8
 C7 
A    9
 C8 
A   10
 N1 
A   11
 C9 
A   12
 C10
A   13
 S2 
A   14
 C11
A   15
 H1 
A   16
 H2 
A   17
 H3 
A   18
 H4 
A   19
 H5 
A   20
 H6 
A   21
 H7 
A   22
 H8 
A   23
 H9 
A   24
 H10
A   25
 H11
M  END
>  <ref_pdb>  (109) 
x0554_0A

>  <ref_mols>  (109) 
x0451_0A,x0554_0A,x0556_0A,x0566_0A,x0310_0A,x0416_0A

>  <original SMILES>  (109) 
CSc1cccc(-c2cnc(C)s2)c1

>  <rationale>  (109) 
info cluster #2 (rank 6); hbond:S87; hydroph_interaction:Y89+V124; 

>  <cluster_rank>  (109) 
6

>  <N_interactions>  (109) 
3

>  <N_interactions_lost>  (109) 
0

>  <∆∆G>  (109) 
-9.073728

>  <comRMSD>  (109) 
0.676064

>  <N_rotatable_bonds>  (109) 
4

>  <N_unconstrained_atoms>  (109) 
0

>  <N_constrained_atoms>  (109) 
15

$$$$
Z3243494522
     RDKit          3D

 25 27  0  0  0  0  0  0  0  0999 V2000
    8.9150    9.5960   24.0490 Cl  0  0  0  0  0  0  0  0  0  0  0  0
    7.7840   10.4970   25.0020 C   0  0  0  0  0  0  0  0  0  0  0  0
    6.9670    9.7620   25.7970 C   0  0  0  0  0  0  0  0  0  0  0  0
    6.0090   10.3380   26.6170 C   0  0  0  0  0  0  0  0  0  0  0  0
    5.8790   11.7200   26.6330 C   0  0  0  0  0  0  0  0  0  0  0  0
    6.7240   12.4660   25.8120 C   0  0  0  0  0  0  0  0  0  0  0  0
    7.6890   11.8690   24.9820 C   0  0  0  0  0  0  0  0  0  0  0  0
    8.5810   12.6540   24.1100 C   0  0  0  0  0  0  0  0  0  0  0  0
    9.9950   12.3290   24.2080 C   0  0  0  0  0  0  0  0  0  0  0  0
   10.5420   13.2050   23.3070 C   0  0  0  0  0  0  0  0  0  0  0  0
   11.9500   13.3740   22.9670 C   0  0  0  0  0  0  0  0  0  0  0  0
   12.1580   14.3350   22.0100 C   0  0  0  0  0  0  0  0  0  0  0  0
   11.1170   15.0310   21.4740 C   0  0  0  0  0  0  0  0  0  0  0  0
    9.7960   14.9060   21.7780 N   0  0  0  0  0  0  0  0  0  0  0  0
    9.5540   13.9760   22.7070 C   0  0  0  0  0  0  0  0  0  0  0  0
    8.3110   13.6170   23.2340 N   0  0  0  0  0  0  0  0  0  0  0  0
    7.0780    8.7160   25.7780 H   0  0  0  0  0  0  0  0  0  0  0  0
    5.3710    9.7140   27.2400 H   0  0  0  0  0  0  0  0  0  0  0  0
    5.1410   12.2090   27.2630 H   0  0  0  0  0  0  0  0  0  0  0  0
    6.5570   13.5470   25.8830 H   0  0  0  0  0  0  0  0  0  0  0  0
   10.5040   11.5950   24.8310 H   0  0  0  0  0  0  0  0  0  0  0  0
   12.7560   12.8120   23.4140 H   0  0  0  0  0  0  0  0  0  0  0  0
   13.1410   14.5700   21.6630 H   0  0  0  0  0  0  0  0  0  0  0  0
   11.3260   15.7860   20.7140 H   0  0  0  0  0  0  0  0  0  0  0  0
    7.4140   14.0120   22.9890 H   0  0  0  0  0  0  0  0  0  0  0  0
  1  2  1  0
  2  3  2  0
  3  4  1  0
  4  5  2  0
  5  6  1  0
  6  7  2  0
  7  8  1  0
  8  9  2  0
  9 10  1  0
 10 11  2  0
 11 12  1  0
 12 13  2  0
 13 14  1  0
 14 15  2  0
 15 16  1  0
  7  2  1  0
 16  8  1  0
 15 10  1  0
  3 17  1  0
  4 18  1  0
  5 19  1  0
  6 20  1  0
  9 21  1  0
 11 22  1  0
 12 23  1  0
 13 24  1  0
 16 25  1  0
A    1
CL1 
A    2
 C1 
A    3
 C2 
A    4
 C3 
A    5
 C4 
A    6
 C5 
A    7
 C6 
A    8
 C7 
A    9
 C8 
A   10
 C9 
A   11
 C10
A   12
 C11
A   13
 C12
A   14
 N1 
A   15
 C13
A   16
 N2 
A   17
 H1 
A   18
 H2 
A   19
 H3 
A   20
 H4 
A   21
 H5 
A   22
 H6 
A   23
 H7 
A   24
 H8 
A   25
 H9 
M  END
>  <ref_pdb>  (110) 
x0554_0A

>  <ref_mols>  (110) 
x0451_0A,x0554_0A,x0556_0A,x0566_0A,x0310_0A,x0416_0A

>  <original SMILES>  (110) 
Clc1ccccc1-c1cc2cccnc2[nH]1

>  <rationale>  (110) 
info cluster #10 (rank 6); hbond:G127; hydroph_interaction:Y89; 

>  <cluster_rank>  (110) 
6

>  <N_interactions>  (110) 
2

>  <N_interactions_lost>  (110) 
0

>  <∆∆G>  (110) 
-5.831989

>  <comRMSD>  (110) 
0.990421

>  <N_rotatable_bonds>  (110) 
1

>  <N_unconstrained_atoms>  (110) 
0

>  <N_constrained_atoms>  (110) 
16

$$$$
Z1838522825
     RDKit          3D

 25 26  0  0  0  0  0  0  0  0999 V2000
    6.1510   13.5320   26.9700 S   0  0  0  0  0  0  0  0  0  0  0  0
    7.3420   12.7570   26.0940 C   0  0  0  0  0  0  0  0  0  0  0  0
    8.6060   13.3000   26.1430 N   0  0  0  0  0  0  0  0  0  0  0  0
    9.5150   13.3870   25.0200 C   0  0  0  0  0  0  0  0  0  0  0  0
    8.8460   13.5610   23.7150 C   0  0  0  0  0  0  0  0  0  0  0  0
    9.6110   13.6740   22.5800 C   0  0  0  0  0  0  0  0  0  0  0  0
   11.0070   13.6060   22.7040 C   0  0  0  0  0  0  0  0  0  0  0  0
   11.6470   13.4370   23.9320 C   0  0  0  0  0  0  0  0  0  0  0  0
   10.8860   13.3310   25.0760 C   0  0  0  0  0  0  0  0  0  0  0  0
    7.2030   11.6550   25.3400 N   0  0  0  0  0  0  0  0  0  0  0  0
    8.1000   10.7130   24.8930 C   0  0  0  0  0  0  0  0  0  0  0  0
    7.7230    9.5920   24.2920 C   0  0  0  0  0  0  0  0  0  0  0  0
    8.9160    8.5050   23.7580 S   0  0  0  0  0  0  0  0  0  0  0  0
   10.0660    9.5800   24.3860 C   0  0  0  0  0  0  0  0  0  0  0  0
    9.5130   10.7230   24.9620 C   0  0  0  0  0  0  0  0  0  0  0  0
    8.8860   13.7970   26.9750 H   0  0  0  0  0  0  0  0  0  0  0  0
    7.7610   13.6020   23.6860 H   0  0  0  0  0  0  0  0  0  0  0  0
    9.2240   13.8130   21.5870 H   0  0  0  0  0  0  0  0  0  0  0  0
   11.6240   13.6900   21.8110 H   0  0  0  0  0  0  0  0  0  0  0  0
   12.7320   13.3900   23.9840 H   0  0  0  0  0  0  0  0  0  0  0  0
   11.3850   13.2010   26.0370 H   0  0  0  0  0  0  0  0  0  0  0  0
    6.3790   11.7120   24.7370 H   0  0  0  0  0  0  0  0  0  0  0  0
    6.6880    9.4260   24.1710 H   0  0  0  0  0  0  0  0  0  0  0  0
   11.1300    9.3950   24.3440 H   0  0  0  0  0  0  0  0  0  0  0  0
   10.1410   11.4920   25.3960 H   0  0  0  0  0  0  0  0  0  0  0  0
  1  2  2  0
  2  3  1  0
  3  4  1  0
  4  5  2  0
  5  6  1  0
  6  7  2  0
  7  8  1  0
  8  9  2  0
  2 10  1  0
 10 11  1  0
 11 12  2  0
 12 13  1  0
 13 14  1  0
 14 15  2  0
  9  4  1  0
 15 11  1  0
  3 16  1  0
  5 17  1  0
  6 18  1  0
  7 19  1  0
  8 20  1  0
  9 21  1  0
 10 22  1  0
 12 23  1  0
 14 24  1  0
 15 25  1  0
A    1
 S1 
A    2
 C1 
A    3
 N1 
A    4
 C2 
A    5
 C3 
A    6
 C4 
A    7
 C5 
A    8
 C6 
A    9
 C7 
A   10
 N2 
A   11
 C8 
A   12
 C9 
A   13
 S2 
A   14
 C10
A   15
 C11
A   16
 H1 
A   17
 H2 
A   18
 H3 
A   19
 H4 
A   20
 H5 
A   21
 H6 
A   22
 H7 
A   23
 H8 
A   24
 H9 
A   25
 H10
M  END
>  <ref_pdb>  (111) 
x0554_0A

>  <ref_mols>  (111) 
x0451_0A,x0554_0A,x0556_0A,x0566_0A,x0310_0A,x0416_0A

>  <original SMILES>  (111) 
S=C(Nc1ccccc1)Nc1ccsc1

>  <rationale>  (111) 
info cluster #1 (rank 6); hbond:G127; 

>  <cluster_rank>  (111) 
6

>  <N_interactions>  (111) 
1

>  <N_interactions_lost>  (111) 
0

>  <∆∆G>  (111) 
-7.219565

>  <comRMSD>  (111) 
0.758302

>  <N_rotatable_bonds>  (111) 
2

>  <N_unconstrained_atoms>  (111) 
0

>  <N_constrained_atoms>  (111) 
16

$$$$
PV_002975350999
     RDKit          3D

 29 31  0  0  0  0  0  0  0  0999 V2000
    9.7250    8.9250   23.7550 C   0  0  0  0  0  0  0  0  0  0  0  0
    9.2520   10.3150   24.1740 C   0  0  0  0  0  0  0  0  0  0  0  0
    8.0240   10.5170   25.0100 C   0  0  0  0  0  0  0  0  0  0  0  0
    7.6440   11.7900   25.3540 C   0  0  0  0  0  0  0  0  0  0  0  0
    6.5490   11.9920   26.1290 C   0  0  0  0  0  0  0  0  0  0  0  0
    6.0790   11.0670   27.0100 C   0  0  0  0  0  0  0  0  0  0  0  0
    4.9780   11.3010   27.8050 C   0  0  0  0  0  0  0  0  0  0  0  0
    4.3180   12.5220   27.7020 C   0  0  0  0  0  0  0  0  0  0  0  0
    3.2540   12.7830   28.4610 F   0  0  0  0  0  0  0  0  0  0  0  0
    4.7930   13.4660   26.7930 C   0  0  0  0  0  0  0  0  0  0  0  0
    5.8980   13.2760   25.9770 N   0  0  0  0  0  0  0  0  0  0  0  0
    8.3890   12.8710   24.9180 C   0  0  0  0  0  0  0  0  0  0  0  0
    9.5120   12.7110   24.1650 C   0  0  0  0  0  0  0  0  0  0  0  0
   10.2050   13.8360   23.7830 C   0  0  0  0  0  0  0  0  0  0  0  0
   11.3390   13.7030   23.0540 C   0  0  0  0  0  0  0  0  0  0  0  0
   11.7510   12.4490   22.7240 C   0  0  0  0  0  0  0  0  0  0  0  0
   11.0920   11.3170   23.0650 N   0  0  0  0  0  0  0  0  0  0  0  0
    9.9760   11.4340   23.7820 C   0  0  0  0  0  0  0  0  0  0  0  0
    9.0900    8.1430   24.1820 H   0  0  0  0  0  0  0  0  0  0  0  0
   10.7520    8.7390   24.0890 H   0  0  0  0  0  0  0  0  0  0  0  0
    9.7030    8.8100   22.6650 H   0  0  0  0  0  0  0  0  0  0  0  0
    7.4420    9.6750   25.3470 H   0  0  0  0  0  0  0  0  0  0  0  0
    6.5950   10.1020   27.0930 H   0  0  0  0  0  0  0  0  0  0  0  0
    4.6850   10.4910   28.4850 H   0  0  0  0  0  0  0  0  0  0  0  0
    4.2960   14.4390   26.6830 H   0  0  0  0  0  0  0  0  0  0  0  0
    8.0650   13.8690   25.1970 H   0  0  0  0  0  0  0  0  0  0  0  0
    9.8490   14.8240   24.0680 H   0  0  0  0  0  0  0  0  0  0  0  0
   11.9110   14.5730   22.7400 H   0  0  0  0  0  0  0  0  0  0  0  0
   12.6590   12.3070   22.1450 H   0  0  0  0  0  0  0  0  0  0  0  0
  1  2  1  0
  2  3  2  0
  3  4  1  0
  4  5  1  0
  5  6  2  0
  6  7  1  0
  7  8  2  0
  8  9  1  0
  8 10  1  0
 10 11  2  0
  4 12  2  0
 12 13  1  0
 13 14  2  0
 14 15  1  0
 15 16  2  0
 16 17  1  0
 17 18  2  0
 18  2  1  0
 11  5  1  0
 18 13  1  0
  1 19  1  0
  1 20  1  0
  1 21  1  0
  3 22  1  0
  6 23  1  0
  7 24  1  0
 10 25  1  0
 12 26  1  0
 14 27  1  0
 15 28  1  0
 16 29  1  0
A    1
 C1 
A    2
 C2 
A    3
 C3 
A    4
 C4 
A    5
 C5 
A    6
 C6 
A    7
 C7 
A    8
 C8 
A    9
 F1 
A   10
 C9 
A   11
 N1 
A   12
 C10
A   13
 C11
A   14
 C12
A   15
 C13
A   16
 C14
A   17
 N2 
A   18
 C15
A   19
 H1 
A   20
 H2 
A   21
 H3 
A   22
 H4 
A   23
 H5 
A   24
 H6 
A   25
 H7 
A   26
 H8 
A   27
 H9 
A   28
 H10
A   29
 H11
M  END
>  <ref_pdb>  (112) 
x0554_0A

>  <ref_mols>  (112) 
x0451_0A,x0554_0A,x0556_0A,x0566_0A,x0310_0A,x0416_0A

>  <original SMILES>  (112) 
Cc1cc(-c2ccc(F)cn2)cc2cccnc12

>  <rationale>  (112) 
info cluster #0 (rank 6); hydroph_interaction:D109; 

>  <cluster_rank>  (112) 
6

>  <N_interactions>  (112) 
1

>  <N_interactions_lost>  (112) 
0

>  <∆∆G>  (112) 
-6.395597

>  <comRMSD>  (112) 
0.572504

>  <N_rotatable_bonds>  (112) 
2

>  <N_unconstrained_atoms>  (112) 
0

>  <N_constrained_atoms>  (112) 
19

$$$$
PV_002806745786
     RDKit          3D

 29 31  0  0  0  0  0  0  0  0999 V2000
   12.0980   11.8460   25.2150 O   0  0  0  0  0  0  0  0  0  0  0  0
   11.1900   12.0860   24.4340 C   0  0  0  0  0  0  0  0  0  0  0  0
   10.1600   10.9960   24.2080 C   0  0  0  0  0  0  0  0  0  0  0  0
   10.4280    9.8520   23.4480 C   0  0  0  0  0  0  0  0  0  0  0  0
    9.4390    8.8980   23.3210 C   0  0  0  0  0  0  0  0  0  0  0  0
    8.2410    9.0300   23.9060 N   0  0  0  0  0  0  0  0  0  0  0  0
    7.9830   10.1360   24.6340 C   0  0  0  0  0  0  0  0  0  0  0  0
    6.7430   10.2810   25.2510 C   0  0  0  0  0  0  0  0  0  0  0  0
    6.4220   11.4070   25.9960 C   0  0  0  0  0  0  0  0  0  0  0  0
    7.3460   12.4160   26.1430 C   0  0  0  0  0  0  0  0  0  0  0  0
    8.5890   12.2840   25.5500 C   0  0  0  0  0  0  0  0  0  0  0  0
    8.9140   11.1640   24.8080 C   0  0  0  0  0  0  0  0  0  0  0  0
   11.0480   13.2950   23.8030 N   0  0  0  0  0  0  0  0  0  0  0  0
   10.3520   13.2570   22.5760 C   0  0  0  0  0  0  0  0  0  0  0  0
   10.8900   14.2550   21.8040 C   0  0  0  0  0  0  0  0  0  0  0  0
   11.8110   14.8680   22.5020 C   0  0  0  0  0  0  0  0  0  0  0  0
   12.4910   15.8780   21.9630 F   0  0  0  0  0  0  0  0  0  0  0  0
   12.0050   14.3760   23.8020 C   0  0  0  0  0  0  0  0  0  0  0  0
   11.3810    9.7090   22.9740 H   0  0  0  0  0  0  0  0  0  0  0  0
    9.5840    7.9880   22.7440 H   0  0  0  0  0  0  0  0  0  0  0  0
    6.0020    9.5030   25.1480 H   0  0  0  0  0  0  0  0  0  0  0  0
    5.4430   11.4870   26.4580 H   0  0  0  0  0  0  0  0  0  0  0  0
    7.1040   13.3020   26.7200 H   0  0  0  0  0  0  0  0  0  0  0  0
    9.3120   13.0890   25.6840 H   0  0  0  0  0  0  0  0  0  0  0  0
   10.5930   12.2790   22.2140 H   0  0  0  0  0  0  0  0  0  0  0  0
    9.2760   13.3710   22.7380 H   0  0  0  0  0  0  0  0  0  0  0  0
   10.6020   14.4830   20.7920 H   0  0  0  0  0  0  0  0  0  0  0  0
   11.7320   15.0940   24.5800 H   0  0  0  0  0  0  0  0  0  0  0  0
   13.0170   13.9900   23.9540 H   0  0  0  0  0  0  0  0  0  0  0  0
  1  2  2  0
  2  3  1  0
  3  4  2  0
  4  5  1  0
  5  6  2  0
  6  7  1  0
  7  8  2  0
  8  9  1  0
  9 10  2  0
 10 11  1  0
 11 12  2  0
  2 13  1  0
 13 14  1  0
 14 15  1  0
 15 16  2  0
 16 17  1  0
 16 18  1  0
 12  3  1  0
 12  7  1  0
 18 13  1  0
  4 19  1  0
  5 20  1  0
  8 21  1  0
  9 22  1  0
 10 23  1  0
 11 24  1  0
 14 25  1  0
 14 26  1  0
 15 27  1  0
 18 28  1  0
 18 29  1  0
A    1
 O1 
A    2
 C1 
A    3
 C2 
A    4
 C3 
A    5
 C4 
A    6
 N1 
A    7
 C5 
A    8
 C6 
A    9
 C7 
A   10
 C8 
A   11
 C9 
A   12
 C10
A   13
 N2 
A   14
 C11
A   15
 C12
A   16
 C13
A   17
 F1 
A   18
 C14
A   19
 H1 
A   20
 H2 
A   21
 H3 
A   22
 H4 
A   23
 H5 
A   24
 H6 
A   25
 H7 
A   26
 H8 
A   27
 H9 
A   28
 H10
A   29
 H11
M  END
>  <ref_pdb>  (113) 
x0554_0A

>  <ref_mols>  (113) 
x0451_0A,x0554_0A,x0556_0A,x0566_0A,x0310_0A,x0416_0A

>  <original SMILES>  (113) 
O=C(c1ccnc2ccccc12)N1CC=C(F)C1

>  <rationale>  (113) 
info cluster #9 (rank 6); hbond:G108; 

>  <cluster_rank>  (113) 
6

>  <N_interactions>  (113) 
1

>  <N_interactions_lost>  (113) 
0

>  <∆∆G>  (113) 
-5.204229

>  <comRMSD>  (113) 
0.723663

>  <N_rotatable_bonds>  (113) 
1

>  <N_unconstrained_atoms>  (113) 
1

>  <N_constrained_atoms>  (113) 
17

$$$$
Z2154440174
     RDKit          3D

 32 34  0  0  0  0  0  0  0  0999 V2000
    8.8030   14.3290   25.2280 C   0  0  0  0  0  0  0  0  0  0  0  0
    8.9570   13.3220   24.1140 C   0  0  0  0  0  0  0  0  0  0  0  0
    9.8800   12.2950   24.5040 C   0  0  0  0  0  0  0  0  0  0  0  0
    9.5160   11.0800   25.1510 C   0  0  0  0  0  0  0  0  0  0  0  0
    8.1390   10.8660   25.5580 C   0  0  0  0  0  0  0  0  0  0  0  0
    7.4030    9.8040   25.1830 C   0  0  0  0  0  0  0  0  0  0  0  0
    6.0870    9.8460   25.7350 C   0  0  0  0  0  0  0  0  0  0  0  0
    5.5410   10.9250   26.6320 C   0  0  0  0  0  0  0  0  0  0  0  0
    6.3820   11.9260   26.9220 C   0  0  0  0  0  0  0  0  0  0  0  0
    7.6580   11.9020   26.3960 C   0  0  0  0  0  0  0  0  0  0  0  0
   11.2520   12.7080   24.1260 C   0  0  0  0  0  0  0  0  0  0  0  0
   12.3210   12.4400   24.6380 O   0  0  0  0  0  0  0  0  0  0  0  0
   10.9880   13.5280   23.0090 C   0  0  0  0  0  0  0  0  0  0  0  0
   12.0430   13.7940   22.1960 C   0  0  0  0  0  0  0  0  0  0  0  0
   11.6420   14.6040   21.1240 C   0  0  0  0  0  0  0  0  0  0  0  0
   10.3310   15.0430   20.9770 C   0  0  0  0  0  0  0  0  0  0  0  0
    9.3230   14.7030   21.8940 C   0  0  0  0  0  0  0  0  0  0  0  0
    9.6980   13.9100   22.9430 C   0  0  0  0  0  0  0  0  0  0  0  0
    9.4620   14.0760   26.0630 H   0  0  0  0  0  0  0  0  0  0  0  0
    9.0840   15.3170   24.8600 H   0  0  0  0  0  0  0  0  0  0  0  0
    7.7670   14.3510   25.5750 H   0  0  0  0  0  0  0  0  0  0  0  0
    7.9530   13.1500   23.7460 H   0  0  0  0  0  0  0  0  0  0  0  0
   10.3330   10.3780   25.3440 H   0  0  0  0  0  0  0  0  0  0  0  0
    7.7820    9.0210   24.5400 H   0  0  0  0  0  0  0  0  0  0  0  0
    5.3980    9.0970   25.5370 H   0  0  0  0  0  0  0  0  0  0  0  0
    4.5260   10.8900   27.0170 H   0  0  0  0  0  0  0  0  0  0  0  0
    6.0640   12.7420   27.5600 H   0  0  0  0  0  0  0  0  0  0  0  0
    8.3110   12.7280   26.6540 H   0  0  0  0  0  0  0  0  0  0  0  0
   13.0280   13.4230   22.3690 H   0  0  0  0  0  0  0  0  0  0  0  0
   12.3890   14.8960   20.3860 H   0  0  0  0  0  0  0  0  0  0  0  0
   10.0820   15.6710   20.1240 H   0  0  0  0  0  0  0  0  0  0  0  0
    8.3050   15.0560   21.7650 H   0  0  0  0  0  0  0  0  0  0  0  0
  1  2  1  0
  2  3  1  0
  3  4  2  3
  4  5  1  0
  5  6  2  0
  6  7  1  0
  7  8  2  0
  8  9  1  0
  9 10  2  0
  3 11  1  0
 11 12  2  0
 11 13  1  0
 13 14  2  0
 14 15  1  0
 15 16  2  0
 16 17  1  0
 17 18  2  0
 18  2  1  0
 10  5  1  0
 18 13  1  0
  1 19  1  0
  1 20  1  0
  1 21  1  0
  2 22  1  0
  4 23  1  0
  6 24  1  0
  7 25  1  0
  8 26  1  0
  9 27  1  0
 10 28  1  0
 14 29  1  0
 15 30  1  0
 16 31  1  0
 17 32  1  0
A    1
 C1 
A    2
 C2 
A    3
 C3 
A    4
 C4 
A    5
 C5 
A    6
 C6 
A    7
 C7 
A    8
 C8 
A    9
 C9 
A   10
 C10
A   11
 C11
A   12
 O1 
A   13
 C12
A   14
 C13
A   15
 C14
A   16
 C15
A   17
 C16
A   18
 C17
A   19
 H1 
A   20
 H2 
A   21
 H3 
A   22
 H4 
A   23
 H5 
A   24
 H6 
A   25
 H7 
A   26
 H8 
A   27
 H9 
A   28
 H10
A   29
 H11
A   30
 H12
A   31
 H13
A   32
 H14
M  END
>  <ref_pdb>  (114) 
x0554_0A

>  <ref_mols>  (114) 
x0451_0A,x0554_0A,x0556_0A,x0566_0A,x0310_0A,x0416_0A

>  <original SMILES>  (114) 
CC1C(=Cc2ccccc2)C(=O)c2ccccc21

>  <rationale>  (114) 
info cluster #18 (rank 6); hydroph_interaction:P107; 

>  <cluster_rank>  (114) 
6

>  <N_interactions>  (114) 
1

>  <N_interactions_lost>  (114) 
0

>  <∆∆G>  (114) 
-6.725477

>  <comRMSD>  (114) 
0.818085

>  <N_rotatable_bonds>  (114) 
2

>  <N_unconstrained_atoms>  (114) 
0

>  <N_constrained_atoms>  (114) 
18

$$$$
PV_002970353312
     RDKit          3D

 26 27  0  0  0  0  0  0  0  0999 V2000
    6.7210   11.2970   26.4970 C   0  0  0  0  0  0  0  0  0  0  0  0
    6.8350    9.7230   25.6610 S   0  0  0  0  0  0  0  0  0  0  0  0
    8.2380    9.9870   24.6310 C   0  0  0  0  0  0  0  0  0  0  0  0
    8.8470    8.8820   24.0270 C   0  0  0  0  0  0  0  0  0  0  0  0
    9.9460    9.0730   23.2180 C   0  0  0  0  0  0  0  0  0  0  0  0
   10.4200   10.3540   23.0210 C   0  0  0  0  0  0  0  0  0  0  0  0
    9.8380   11.4750   23.6020 C   0  0  0  0  0  0  0  0  0  0  0  0
   10.2790   12.7720   23.4130 C   0  0  0  0  0  0  0  0  0  0  0  0
    9.6920   13.8840   24.0600 C   0  0  0  0  0  0  0  0  0  0  0  0
   10.3940   14.9640   23.5860 N   0  0  0  0  0  0  0  0  0  0  0  0
   11.3340   14.4570   22.7060 C   0  0  0  0  0  0  0  0  0  0  0  0
   12.3030   15.3310   21.9370 C   0  0  0  0  0  0  0  0  0  0  0  0
   11.2710   13.1570   22.6150 N   0  0  0  0  0  0  0  0  0  0  0  0
    8.7310   11.2640   24.4180 C   0  0  0  0  0  0  0  0  0  0  0  0
    6.2060   12.0010   25.8480 H   0  0  0  0  0  0  0  0  0  0  0  0
    7.7120   11.6660   26.7730 H   0  0  0  0  0  0  0  0  0  0  0  0
    6.1330   11.2030   27.4140 H   0  0  0  0  0  0  0  0  0  0  0  0
    8.4350    7.9020   24.2180 H   0  0  0  0  0  0  0  0  0  0  0  0
   10.4300    8.2270   22.7460 H   0  0  0  0  0  0  0  0  0  0  0  0
   11.2760   10.4970   22.3870 H   0  0  0  0  0  0  0  0  0  0  0  0
    8.8710   13.9160   24.7690 H   0  0  0  0  0  0  0  0  0  0  0  0
   10.2390   15.9330   23.8360 H   0  0  0  0  0  0  0  0  0  0  0  0
   11.9610   16.3660   22.0410 H   0  0  0  0  0  0  0  0  0  0  0  0
   13.3720   15.4010   22.0120 H   0  0  0  0  0  0  0  0  0  0  0  0
   12.1530   15.0830   20.8960 H   0  0  0  0  0  0  0  0  0  0  0  0
    8.2550   12.1210   24.8850 H   0  0  0  0  0  0  0  0  0  0  0  0
  1  2  1  0
  2  3  1  0
  3  4  2  0
  4  5  1  0
  5  6  2  0
  6  7  1  0
  7  8  1  0
  8  9  2  0
  9 10  1  0
 10 11  1  0
 11 12  1  0
 11 13  2  0
  7 14  2  0
 14  3  1  0
 13  8  1  0
  1 15  1  0
  1 16  1  0
  1 17  1  0
  4 18  1  0
  5 19  1  0
  6 20  1  0
  9 21  1  0
 10 22  1  0
 12 23  1  0
 12 24  1  0
 12 25  1  0
 14 26  1  0
A    1
 C1 
A    2
 S1 
A    3
 C2 
A    4
 C3 
A    5
 C4 
A    6
 C5 
A    7
 C6 
A    8
 C7 
A    9
 C8 
A   10
 N1 
A   11
 C9 
A   12
 C10
A   13
 N2 
A   14
 C11
A   15
 H1 
A   16
 H2 
A   17
 H3 
A   18
 H4 
A   19
 H5 
A   20
 H6 
A   21
 H7 
A   22
 H8 
A   23
 H9 
A   24
 H10
A   25
 H11
A   26
 H12
M  END
>  <ref_pdb>  (115) 
x0554_0A

>  <ref_mols>  (115) 
x0451_0A,x0554_0A,x0556_0A,x0566_0A,x0310_0A,x0416_0A

>  <original SMILES>  (115) 
CSc1cccc(-c2c[nH]c(C)n2)c1

>  <rationale>  (115) 
info cluster #19 (rank 6); hbond:S87; hydroph_interaction:Y89+V124; 

>  <cluster_rank>  (115) 
6

>  <N_interactions>  (115) 
4

>  <N_interactions_lost>  (115) 
0

>  <∆∆G>  (115) 
-8.064287

>  <comRMSD>  (115) 
0.704719

>  <N_rotatable_bonds>  (115) 
4

>  <N_unconstrained_atoms>  (115) 
0

>  <N_constrained_atoms>  (115) 
15

$$$$
PV_005558434001
     RDKit          3D

 26 28  0  0  0  0  0  0  0  0999 V2000
    6.8220   11.3040   25.5370 C   0  0  0  0  0  0  0  0  0  0  0  0
    7.3030   10.5810   24.4930 C   0  0  0  0  0  0  0  0  0  0  0  0
    8.6100   10.4810   24.1300 C   0  0  0  0  0  0  0  0  0  0  0  0
    9.4550   11.5120   23.7800 C   0  0  0  0  0  0  0  0  0  0  0  0
    9.1270   12.9340   23.7150 C   0  0  0  0  0  0  0  0  0  0  0  0
   10.1470   13.8040   23.3330 C   0  0  0  0  0  0  0  0  0  0  0  0
   11.4210   13.3290   23.0390 C   0  0  0  0  0  0  0  0  0  0  0  0
   11.7190   11.9910   23.1090 C   0  0  0  0  0  0  0  0  0  0  0  0
   10.7410   11.0640   23.4720 C   0  0  0  0  0  0  0  0  0  0  0  0
   10.8690    9.7160   23.5750 N   0  0  0  0  0  0  0  0  0  0  0  0
    9.4480    9.0300   24.0330 S   0  0  0  0  0  0  0  0  0  0  0  0
    6.2450   12.0820   26.5430 C   0  0  0  0  0  0  0  0  0  0  0  0
    6.9530   13.1690   27.0180 C   0  0  0  0  0  0  0  0  0  0  0  0
    6.3890   13.9450   28.0050 C   0  0  0  0  0  0  0  0  0  0  0  0
    5.1220   13.6290   28.5090 C   0  0  0  0  0  0  0  0  0  0  0  0
    4.4250   12.5270   28.0160 C   0  0  0  0  0  0  0  0  0  0  0  0
    4.9890   11.7540   27.0350 C   0  0  0  0  0  0  0  0  0  0  0  0
    8.1420   13.3200   23.9450 H   0  0  0  0  0  0  0  0  0  0  0  0
    9.9440   14.8750   23.2670 H   0  0  0  0  0  0  0  0  0  0  0  0
   12.2000   14.0330   22.7470 H   0  0  0  0  0  0  0  0  0  0  0  0
   12.7110   11.6710   22.8800 H   0  0  0  0  0  0  0  0  0  0  0  0
    7.9350   13.4140   26.6250 H   0  0  0  0  0  0  0  0  0  0  0  0
    6.9290   14.8040   28.3910 H   0  0  0  0  0  0  0  0  0  0  0  0
    4.6820   14.2480   29.2880 H   0  0  0  0  0  0  0  0  0  0  0  0
    3.4410   12.2820   28.4080 H   0  0  0  0  0  0  0  0  0  0  0  0
    4.4510   10.8950   26.6480 H   0  0  0  0  0  0  0  0  0  0  0  0
  1  2  3  0
  2  3  1  0
  3  4  2  0
  4  5  1  0
  5  6  2  0
  6  7  1  0
  7  8  2  0
  8  9  1  0
  9 10  2  0
 10 11  1  0
  1 12  1  0
 12 13  2  0
 13 14  1  0
 14 15  2  0
 15 16  1  0
 16 17  2  0
 11  3  1  0
  9  4  1  0
 17 12  1  0
  5 18  1  0
  6 19  1  0
  7 20  1  0
  8 21  1  0
 13 22  1  0
 14 23  1  0
 15 24  1  0
 16 25  1  0
 17 26  1  0
A    1
 C1 
A    2
 C2 
A    3
 C3 
A    4
 C4 
A    5
 C5 
A    6
 C6 
A    7
 C7 
A    8
 C8 
A    9
 C9 
A   10
 N1 
A   11
 S1 
A   12
 C10
A   13
 C11
A   14
 C12
A   15
 C13
A   16
 C14
A   17
 C15
A   18
 H1 
A   19
 H2 
A   20
 H3 
A   21
 H4 
A   22
 H5 
A   23
 H6 
A   24
 H7 
A   25
 H8 
A   26
 H9 
M  END
>  <ref_pdb>  (116) 
x0554_0A

>  <ref_mols>  (116) 
x0451_0A,x0554_0A,x0556_0A,x0566_0A,x0310_0A,x0416_0A

>  <original SMILES>  (116) 
C(#Cc1snc2ccccc12)c1ccccc1

>  <rationale>  (116) 
info cluster #6 (rank 6); hbond:C110; 

>  <cluster_rank>  (116) 
6

>  <N_interactions>  (116) 
1

>  <N_interactions_lost>  (116) 
0

>  <∆∆G>  (116) 
-4.57178

>  <comRMSD>  (116) 
0.857507

>  <N_rotatable_bonds>  (116) 
0

>  <N_unconstrained_atoms>  (116) 
0

>  <N_constrained_atoms>  (116) 
17

$$$$
Z2194159685
     RDKit          3D

 28 30  0  0  0  0  0  0  0  0999 V2000
   11.8560   12.8080   24.2920 O   0  0  0  0  0  0  0  0  0  0  0  0
   11.1890   13.7240   23.8710 C   0  0  0  0  0  0  0  0  0  0  0  0
   10.0030   14.0910   24.3040 N   0  0  0  0  0  0  0  0  0  0  0  0
    9.3240   13.0620   24.5250 C   0  0  0  0  0  0  0  0  0  0  0  0
    8.2890   13.1430   25.3190 N   0  0  0  0  0  0  0  0  0  0  0  0
    7.5990   12.0680   25.5690 C   0  0  0  0  0  0  0  0  0  0  0  0
    6.5100   12.0930   26.3860 C   0  0  0  0  0  0  0  0  0  0  0  0
    5.7280   10.9650   26.6950 C   0  0  0  0  0  0  0  0  0  0  0  0
    6.1560    9.7610   26.0900 C   0  0  0  0  0  0  0  0  0  0  0  0
    7.2780    9.7220   25.2530 C   0  0  0  0  0  0  0  0  0  0  0  0
    7.9670   10.8400   24.9960 C   0  0  0  0  0  0  0  0  0  0  0  0
    9.0480   10.7690   24.1550 C   0  0  0  0  0  0  0  0  0  0  0  0
    9.5400    9.2820   23.4150 Cl  0  0  0  0  0  0  0  0  0  0  0  0
    9.7500   11.9100   23.9040 C   0  0  0  0  0  0  0  0  0  0  0  0
   11.5710   14.5410   22.8020 C   0  0  0  0  0  0  0  0  0  0  0  0
   12.2540   14.2860   21.6630 C   0  0  0  0  0  0  0  0  0  0  0  0
   12.3460   15.4140   20.9620 C   0  0  0  0  0  0  0  0  0  0  0  0
   11.7090   16.3980   21.6460 C   0  0  0  0  0  0  0  0  0  0  0  0
   11.2240   15.8880   22.8060 O   0  0  0  0  0  0  0  0  0  0  0  0
    9.9590   14.8270   24.9970 H   0  0  0  0  0  0  0  0  0  0  0  0
    6.2340   13.0520   26.8220 H   0  0  0  0  0  0  0  0  0  0  0  0
    4.8630   11.0180   27.3490 H   0  0  0  0  0  0  0  0  0  0  0  0
    5.5990    8.8990   26.2930 H   0  0  0  0  0  0  0  0  0  0  0  0
    7.6140    8.8130   24.8020 H   0  0  0  0  0  0  0  0  0  0  0  0
   10.6050   11.9000   23.2510 H   0  0  0  0  0  0  0  0  0  0  0  0
   12.6370   13.3060   21.4110 H   0  0  0  0  0  0  0  0  0  0  0  0
   12.8520   15.4670   20.0060 H   0  0  0  0  0  0  0  0  0  0  0  0
   11.5140   17.4360   21.4820 H   0  0  0  0  0  0  0  0  0  0  0  0
  1  2  2  0
  2  3  1  0
  3  4  1  0
  4  5  2  0
  5  6  1  0
  6  7  2  0
  7  8  1  0
  8  9  2  0
  9 10  1  0
 10 11  2  0
 11 12  1  0
 12 13  1  0
 12 14  2  0
  2 15  1  0
 15 16  2  0
 16 17  1  0
 17 18  2  0
 18 19  1  0
 14  4  1  0
 11  6  1  0
 19 15  1  0
  3 20  1  0
  7 21  1  0
  8 22  1  0
  9 23  1  0
 10 24  1  0
 14 25  1  0
 16 26  1  0
 17 27  1  0
 18 28  1  0
A    1
 O1 
A    2
 C1 
A    3
 N1 
A    4
 C2 
A    5
 N2 
A    6
 C3 
A    7
 C4 
A    8
 C5 
A    9
 C6 
A   10
 C7 
A   11
 C8 
A   12
 C9 
A   13
CL1 
A   14
 C10
A   15
 C11
A   16
 C12
A   17
 C13
A   18
 C14
A   19
 O2 
A   20
 H1 
A   21
 H2 
A   22
 H3 
A   23
 H4 
A   24
 H5 
A   25
 H6 
A   26
 H7 
A   27
 H8 
A   28
 H9 
M  END
>  <ref_pdb>  (117) 
x0554_0A

>  <ref_mols>  (117) 
x0451_0A,x0554_0A,x0556_0A,x0566_0A,x0310_0A,x0416_0A

>  <original SMILES>  (117) 
O=C(Nc1cc(Cl)c2ccccc2n1)c1ccco1

>  <rationale>  (117) 
info cluster #7 (rank 6); hydroph_interaction:Y90; pistack:Y89; 

>  <cluster_rank>  (117) 
6

>  <N_interactions>  (117) 
2

>  <N_interactions_lost>  (117) 
0

>  <∆∆G>  (117) 
-6.966441

>  <comRMSD>  (117) 
0.908763

>  <N_rotatable_bonds>  (117) 
2

>  <N_unconstrained_atoms>  (117) 
0

>  <N_constrained_atoms>  (117) 
19

$$$$
Z5519729708
     RDKit          3D

 28 29  0  0  0  0  0  0  0  0999 V2000
   10.5600   10.0680   22.9510 C   0  0  0  0  0  0  0  0  0  0  0  0
    9.4790   10.5010   23.8740 C   0  0  0  0  0  0  0  0  0  0  0  0
    8.7060    9.6510   24.6050 C   0  0  0  0  0  0  0  0  0  0  0  0
    7.6820   10.1060   25.4740 C   0  0  0  0  0  0  0  0  0  0  0  0
    7.4010   11.3870   25.6320 C   0  0  0  0  0  0  0  0  0  0  0  0
    6.3430   11.8370   26.5160 C   0  0  0  0  0  0  0  0  0  0  0  0
    5.4250   10.8940   26.8190 N   0  0  0  0  0  0  0  0  0  0  0  0
    6.2780   12.9770   26.9520 O   0  0  0  0  0  0  0  0  0  0  0  0
    8.1670   12.3000   24.9110 C   0  0  0  0  0  0  0  0  0  0  0  0
    9.2000   11.8930   24.0390 C   0  0  0  0  0  0  0  0  0  0  0  0
    9.9010   12.8930   23.3730 C   0  0  0  0  0  0  0  0  0  0  0  0
    9.2080   13.7330   22.5040 C   0  0  0  0  0  0  0  0  0  0  0  0
    9.9060   14.7270   21.8160 C   0  0  0  0  0  0  0  0  0  0  0  0
   11.2220   14.9470   21.9420 N   0  0  0  0  0  0  0  0  0  0  0  0
   11.8710   14.1320   22.7970 C   0  0  0  0  0  0  0  0  0  0  0  0
   11.2690   13.0990   23.5300 C   0  0  0  0  0  0  0  0  0  0  0  0
   10.1680    9.5720   22.0590 H   0  0  0  0  0  0  0  0  0  0  0  0
   11.1530   10.9270   22.6420 H   0  0  0  0  0  0  0  0  0  0  0  0
   11.2180    9.3460   23.4430 H   0  0  0  0  0  0  0  0  0  0  0  0
    8.8710    8.5800   24.5300 H   0  0  0  0  0  0  0  0  0  0  0  0
    7.0950    9.3860   26.0340 H   0  0  0  0  0  0  0  0  0  0  0  0
    4.5160   11.1250   27.1870 H   0  0  0  0  0  0  0  0  0  0  0  0
    5.5040   10.0350   26.2860 H   0  0  0  0  0  0  0  0  0  0  0  0
    7.9740   13.3650   25.0130 H   0  0  0  0  0  0  0  0  0  0  0  0
    8.1420   13.6220   22.3510 H   0  0  0  0  0  0  0  0  0  0  0  0
    9.3680   15.3740   21.1360 H   0  0  0  0  0  0  0  0  0  0  0  0
   12.9330   14.3060   22.9050 H   0  0  0  0  0  0  0  0  0  0  0  0
   11.8680   12.4840   24.1950 H   0  0  0  0  0  0  0  0  0  0  0  0
  1  2  1  0
  2  3  2  0
  3  4  1  0
  4  5  2  0
  5  6  1  0
  6  7  1  0
  6  8  2  0
  5  9  1  0
  9 10  2  0
 10 11  1  0
 11 12  2  0
 12 13  1  0
 13 14  2  0
 14 15  1  0
 15 16  2  0
 10  2  1  0
 16 11  1  0
  1 17  1  0
  1 18  1  0
  1 19  1  0
  3 20  1  0
  4 21  1  0
  7 22  1  0
  7 23  1  0
  9 24  1  0
 12 25  1  0
 13 26  1  0
 15 27  1  0
 16 28  1  0
A    1
 C1 
A    2
 C2 
A    3
 C3 
A    4
 C4 
A    5
 C5 
A    6
 C6 
A    7
 N1 
A    8
 O1 
A    9
 C7 
A   10
 C8 
A   11
 C9 
A   12
 C10
A   13
 C11
A   14
 N2 
A   15
 C12
A   16
 C13
A   17
 H1 
A   18
 H2 
A   19
 H3 
A   20
 H4 
A   21
 H5 
A   22
 H6 
A   23
 H7 
A   24
 H8 
A   25
 H9 
A   26
 H10
A   27
 H11
A   28
 H12
M  END
>  <ref_pdb>  (118) 
x0554_0A

>  <ref_mols>  (118) 
x0451_0A,x0554_0A,x0556_0A,x0566_0A,x0310_0A,x0416_0A

>  <original SMILES>  (118) 
Cc1ccc(C(N)=O)cc1-c1ccncc1

>  <rationale>  (118) 
info cluster #15 (rank 6); hbond:S87+S105; 

>  <cluster_rank>  (118) 
6

>  <N_interactions>  (118) 
2

>  <N_interactions_lost>  (118) 
0

>  <∆∆G>  (118) 
-6.531433

>  <comRMSD>  (118) 
0.634845

>  <N_rotatable_bonds>  (118) 
3

>  <N_unconstrained_atoms>  (118) 
0

>  <N_constrained_atoms>  (118) 
16

$$$$
PV_002928797155
     RDKit          3D

 26 27  0  0  0  0  0  0  0  0999 V2000
    6.5460   10.5670   26.3370 C   0  0  0  0  0  0  0  0  0  0  0  0
    6.9800    9.6310   25.4410 N   0  0  0  0  0  0  0  0  0  0  0  0
    8.1320    9.8430   24.6280 C   0  0  0  0  0  0  0  0  0  0  0  0
    8.7730    8.7610   24.0290 C   0  0  0  0  0  0  0  0  0  0  0  0
    9.8880    9.0050   23.2430 C   0  0  0  0  0  0  0  0  0  0  0  0
   10.3330   10.3130   23.0740 C   0  0  0  0  0  0  0  0  0  0  0  0
    9.7180   11.4250   23.6560 C   0  0  0  0  0  0  0  0  0  0  0  0
   10.2980   12.6510   23.3490 C   0  0  0  0  0  0  0  0  0  0  0  0
    9.5130   13.8340   23.5250 C   0  0  0  0  0  0  0  0  0  0  0  0
   10.1390   14.9920   23.1440 N   0  0  0  0  0  0  0  0  0  0  0  0
   11.4000   14.6340   22.6750 C   0  0  0  0  0  0  0  0  0  0  0  0
   12.3140   15.4970   22.1450 C   0  0  0  0  0  0  0  0  0  0  0  0
   11.8450   12.9830   22.7390 S   0  0  0  0  0  0  0  0  0  0  0  0
    8.5980   11.2400   24.4570 C   0  0  0  0  0  0  0  0  0  0  0  0
    5.8130   11.2650   25.9380 H   0  0  0  0  0  0  0  0  0  0  0  0
    6.0670   10.0430   27.1730 H   0  0  0  0  0  0  0  0  0  0  0  0
    7.3870   11.1340   26.7460 H   0  0  0  0  0  0  0  0  0  0  0  0
    6.9660    8.6950   25.8220 H   0  0  0  0  0  0  0  0  0  0  0  0
    8.4270    7.7420   24.1640 H   0  0  0  0  0  0  0  0  0  0  0  0
   10.4050    8.1850   22.7680 H   0  0  0  0  0  0  0  0  0  0  0  0
   11.2030   10.4610   22.4510 H   0  0  0  0  0  0  0  0  0  0  0  0
    8.5020   13.7260   23.9260 H   0  0  0  0  0  0  0  0  0  0  0  0
   12.2540   15.4050   21.0520 H   0  0  0  0  0  0  0  0  0  0  0  0
   13.3810   15.4210   22.3610 H   0  0  0  0  0  0  0  0  0  0  0  0
   11.9780   16.5000   22.3930 H   0  0  0  0  0  0  0  0  0  0  0  0
    8.0920   12.0810   24.9230 H   0  0  0  0  0  0  0  0  0  0  0  0
  1  2  1  0
  2  3  1  0
  3  4  2  0
  4  5  1  0
  5  6  2  0
  6  7  1  0
  7  8  1  0
  8  9  2  0
  9 10  1  0
 10 11  2  0
 11 12  1  0
 11 13  1  0
  7 14  2  0
 14  3  1  0
 13  8  1  0
  1 15  1  0
  1 16  1  0
  1 17  1  0
  2 18  1  0
  4 19  1  0
  5 20  1  0
  6 21  1  0
  9 22  1  0
 12 23  1  0
 12 24  1  0
 12 25  1  0
 14 26  1  0
A    1
 C1 
A    2
 N1 
A    3
 C2 
A    4
 C3 
A    5
 C4 
A    6
 C5 
A    7
 C6 
A    8
 C7 
A    9
 C8 
A   10
 N2 
A   11
 C9 
A   12
 C10
A   13
 S1 
A   14
 C11
A   15
 H1 
A   16
 H2 
A   17
 H3 
A   18
 H4 
A   19
 H5 
A   20
 H6 
A   21
 H7 
A   22
 H8 
A   23
 H9 
A   24
 H10
A   25
 H11
A   26
 H12
M  END
>  <ref_pdb>  (119) 
x0554_0A

>  <ref_mols>  (119) 
x0451_0A,x0554_0A,x0556_0A,x0566_0A,x0310_0A,x0416_0A

>  <original SMILES>  (119) 
CNc1cccc(-c2cnc(C)s2)c1

>  <rationale>  (119) 
info cluster #4 (rank 6); hbond:S87+S105; hydroph_interaction:Y89+V124; 

>  <cluster_rank>  (119) 
6

>  <N_interactions>  (119) 
4

>  <N_interactions_lost>  (119) 
0

>  <∆∆G>  (119) 
-7.847146

>  <comRMSD>  (119) 
0.600109

>  <N_rotatable_bonds>  (119) 
4

>  <N_unconstrained_atoms>  (119) 
0

>  <N_constrained_atoms>  (119) 
15

$$$$
PV_003336434570
     RDKit          3D

 23 25  0  0  0  0  0  0  0  0999 V2000
    6.1370   10.4220   26.7750 C   0  0  0  0  0  0  0  0  0  0  0  0
    7.1310    9.9800   25.9610 C   0  0  0  0  0  0  0  0  0  0  0  0
    7.9240   10.8860   25.1870 C   0  0  0  0  0  0  0  0  0  0  0  0
    8.9430   10.3270   24.3550 N   0  0  0  0  0  0  0  0  0  0  0  0
    9.6520   11.2180   23.6480 N   0  0  0  0  0  0  0  0  0  0  0  0
    9.3700   12.6050   23.7620 C   0  0  0  0  0  0  0  0  0  0  0  0
   10.0850   13.5510   23.0330 C   0  0  0  0  0  0  0  0  0  0  0  0
    9.7400   14.9900   22.9340 C   0  0  0  0  0  0  0  0  0  0  0  0
   10.4740   15.9640   22.1710 N   0  0  0  0  0  0  0  0  0  0  0  0
   11.5360   15.3660   21.5400 C   0  0  0  0  0  0  0  0  0  0  0  0
   11.8440   14.0180   21.6450 C   0  0  0  0  0  0  0  0  0  0  0  0
   11.1500   13.1350   22.3730 N   0  0  0  0  0  0  0  0  0  0  0  0
    8.4030   13.0990   24.5610 N   0  0  0  0  0  0  0  0  0  0  0  0
    7.6840   12.2370   25.2680 C   0  0  0  0  0  0  0  0  0  0  0  0
    6.6520   12.7090   26.1200 C   0  0  0  0  0  0  0  0  0  0  0  0
    5.8820   11.7870   26.8690 C   0  0  0  0  0  0  0  0  0  0  0  0
    5.5950    9.6410   27.3170 H   0  0  0  0  0  0  0  0  0  0  0  0
    7.4320    8.9520   25.8080 H   0  0  0  0  0  0  0  0  0  0  0  0
    8.8770   15.3990   23.4520 H   0  0  0  0  0  0  0  0  0  0  0  0
   12.1360   16.0380   20.9380 H   0  0  0  0  0  0  0  0  0  0  0  0
   12.6780   13.5770   21.1400 H   0  0  0  0  0  0  0  0  0  0  0  0
    6.4340   13.7680   26.2120 H   0  0  0  0  0  0  0  0  0  0  0  0
    5.0920   12.1560   27.5180 H   0  0  0  0  0  0  0  0  0  0  0  0
  1  2  2  0
  2  3  1  0
  3  4  2  0
  4  5  1  0
  5  6  2  0
  6  7  1  0
  7  8  2  0
  8  9  1  0
  9 10  2  0
 10 11  1  0
 11 12  2  0
  6 13  1  0
 13 14  2  0
 14 15  1  0
 15 16  2  0
 16  1  1  0
 14  3  1  0
 12  7  1  0
  1 17  1  0
  2 18  1  0
  8 19  1  0
 10 20  1  0
 11 21  1  0
 15 22  1  0
 16 23  1  0
A    1
 C1 
A    2
 C2 
A    3
 C3 
A    4
 N1 
A    5
 N2 
A    6
 C4 
A    7
 C5 
A    8
 C6 
A    9
 N3 
A   10
 C7 
A   11
 C8 
A   12
 N4 
A   13
 N5 
A   14
 C9 
A   15
 C10
A   16
 C11
A   17
 H1 
A   18
 H2 
A   19
 H3 
A   20
 H4 
A   21
 H5 
A   22
 H6 
A   23
 H7 
M  END
>  <ref_pdb>  (120) 
x0554_0A

>  <ref_mols>  (120) 
x0451_0A,x0554_0A,x0556_0A,x0566_0A,x0310_0A,x0416_0A

>  <original SMILES>  (120) 
c1ccc2nc(-c3cnccn3)nnc2c1

>  <rationale>  (120) 
info cluster #16 (rank 6); hbond:S87+E106; 

>  <cluster_rank>  (120) 
6

>  <N_interactions>  (120) 
2

>  <N_interactions_lost>  (120) 
0

>  <∆∆G>  (120) 
-4.093237

>  <comRMSD>  (120) 
0.500539

>  <N_rotatable_bonds>  (120) 
1

>  <N_unconstrained_atoms>  (120) 
0

>  <N_constrained_atoms>  (120) 
16

$$$$
PV_006226936605
     RDKit          3D

 25 27  0  0  0  0  0  0  0  0999 V2000
    9.4240    9.8550   24.2240 C   0  0  0  0  0  0  0  0  0  0  0  0
    8.2200   10.4150   25.0000 C   0  0  0  0  0  0  0  0  0  0  0  0
    7.2480    9.5230   25.5220 C   0  0  0  0  0  0  0  0  0  0  0  0
    6.1700   10.0430   26.2040 C   0  0  0  0  0  0  0  0  0  0  0  0
    6.0540   11.4160   26.3770 C   0  0  0  0  0  0  0  0  0  0  0  0
    6.9860   12.3270   25.8920 C   0  0  0  0  0  0  0  0  0  0  0  0
    8.1900   11.7730   25.1300 C   0  0  0  0  0  0  0  0  0  0  0  0
    9.1450   12.5890   24.6440 C   0  0  0  0  0  0  0  0  0  0  0  0
    9.6600   12.7250   23.4560 N   0  0  0  0  0  0  0  0  0  0  0  0
   10.5600   13.7220   23.6900 C   0  0  0  0  0  0  0  0  0  0  0  0
   11.3450   14.2230   22.7100 C   0  0  0  0  0  0  0  0  0  0  0  0
   12.0880   15.3060   22.7800 N   0  0  0  0  0  0  0  0  0  0  0  0
   12.6800   15.4420   21.6140 N   0  0  0  0  0  0  0  0  0  0  0  0
   12.3370   14.4750   20.7830 N   0  0  0  0  0  0  0  0  0  0  0  0
   11.4960   13.7040   21.4900 N   0  0  0  0  0  0  0  0  0  0  0  0
   10.6140   14.1800   24.9360 N   0  0  0  0  0  0  0  0  0  0  0  0
    9.6650   13.4240   25.5800 O   0  0  0  0  0  0  0  0  0  0  0  0
    9.3170    8.7760   24.0620 H   0  0  0  0  0  0  0  0  0  0  0  0
    9.5280   10.3300   23.2430 H   0  0  0  0  0  0  0  0  0  0  0  0
   10.3650   10.0110   24.7660 H   0  0  0  0  0  0  0  0  0  0  0  0
    7.3800    8.4930   25.3790 H   0  0  0  0  0  0  0  0  0  0  0  0
    5.4430    9.3270   26.5880 H   0  0  0  0  0  0  0  0  0  0  0  0
    5.1530   11.6970   26.9360 H   0  0  0  0  0  0  0  0  0  0  0  0
    6.8630   13.4070   26.0530 H   0  0  0  0  0  0  0  0  0  0  0  0
   11.0930   12.8780   21.0730 H   0  0  0  0  0  0  0  0  0  0  0  0
  1  2  1  0
  2  3  2  0
  3  4  1  0
  4  5  2  0
  5  6  1  0
  6  7  2  0
  7  8  1  0
  8  9  2  0
  9 10  1  0
 10 11  1  0
 11 12  2  0
 12 13  1  0
 13 14  2  0
 14 15  1  0
 10 16  2  0
 16 17  1  0
  7  2  1  0
 17  8  1  0
 15 11  1  0
  1 18  1  0
  1 19  1  0
  1 20  1  0
  3 21  1  0
  4 22  1  0
  5 23  1  0
  6 24  1  0
 15 25  1  0
A    1
 C1 
A    2
 C2 
A    3
 C3 
A    4
 C4 
A    5
 C5 
A    6
 C6 
A    7
 C7 
A    8
 C8 
A    9
 N1 
A   10
 C9 
A   11
 C10
A   12
 N2 
A   13
 N3 
A   14
 N4 
A   15
 N5 
A   16
 N6 
A   17
 O1 
A   18
 H1 
A   19
 H2 
A   20
 H3 
A   21
 H4 
A   22
 H5 
A   23
 H6 
A   24
 H7 
A   25
 H8 
M  END
>  <ref_pdb>  (121) 
x0554_0A

>  <ref_mols>  (121) 
x0451_0A,x0554_0A,x0556_0A,x0566_0A,x0310_0A,x0416_0A

>  <original SMILES>  (121) 
Cc1ccccc1-c1nc(-c2nnn[nH]2)no1

>  <rationale>  (121) 
info cluster #8 (rank 6); hbond:S125+S87; pistack:H21; 

>  <cluster_rank>  (121) 
6

>  <N_interactions>  (121) 
3

>  <N_interactions_lost>  (121) 
0

>  <∆∆G>  (121) 
-6.294291

>  <comRMSD>  (121) 
0.592333

>  <N_rotatable_bonds>  (121) 
3

>  <N_unconstrained_atoms>  (121) 
0

>  <N_constrained_atoms>  (121) 
17

$$$$
PV_002785123557
     RDKit          3D

 28 30  0  0  0  0  0  0  0  0999 V2000
    6.8980   10.1440   26.1640 O   0  0  0  0  0  0  0  0  0  0  0  0
    7.0010   11.3490   25.9130 C   0  0  0  0  0  0  0  0  0  0  0  0
    7.9520   11.9300   24.9000 C   0  0  0  0  0  0  0  0  0  0  0  0
    8.9170   11.2790   24.2450 C   0  0  0  0  0  0  0  0  0  0  0  0
   10.0500   11.8890   23.8350 C   0  0  0  0  0  0  0  0  0  0  0  0
   10.9740   11.1400   23.1630 C   0  0  0  0  0  0  0  0  0  0  0  0
   12.1090   11.7810   22.7590 O   0  0  0  0  0  0  0  0  0  0  0  0
   10.7860    9.7630   22.8830 C   0  0  0  0  0  0  0  0  0  0  0  0
    9.6250    9.1530   23.3150 C   0  0  0  0  0  0  0  0  0  0  0  0
    8.7140    9.9470   23.9950 C   0  0  0  0  0  0  0  0  0  0  0  0
    7.7960   13.2340   24.6180 C   0  0  0  0  0  0  0  0  0  0  0  0
    6.8720   14.0790   25.1590 O   0  0  0  0  0  0  0  0  0  0  0  0
    6.1120   13.5600   26.1700 C   0  0  0  0  0  0  0  0  0  0  0  0
    5.2530   14.4220   26.8280 C   0  0  0  0  0  0  0  0  0  0  0  0
    4.4530   13.9540   27.8670 C   0  0  0  0  0  0  0  0  0  0  0  0
    4.5110   12.6190   28.2550 C   0  0  0  0  0  0  0  0  0  0  0  0
    5.3700   11.7600   27.5970 C   0  0  0  0  0  0  0  0  0  0  0  0
    6.1600   12.2170   26.5660 C   0  0  0  0  0  0  0  0  0  0  0  0
   10.2210   12.9440   24.0330 H   0  0  0  0  0  0  0  0  0  0  0  0
   12.1090   11.7450   21.7830 H   0  0  0  0  0  0  0  0  0  0  0  0
   11.4940    9.1660   22.3500 H   0  0  0  0  0  0  0  0  0  0  0  0
    9.3550    8.1180   23.1730 H   0  0  0  0  0  0  0  0  0  0  0  0
    7.8050    9.5200   24.3450 H   0  0  0  0  0  0  0  0  0  0  0  0
    8.4050   13.7830   23.9050 H   0  0  0  0  0  0  0  0  0  0  0  0
    5.1900   15.4720   26.5440 H   0  0  0  0  0  0  0  0  0  0  0  0
    3.7770   14.6460   28.3770 H   0  0  0  0  0  0  0  0  0  0  0  0
    3.8920   12.2440   29.0660 H   0  0  0  0  0  0  0  0  0  0  0  0
    5.4190   10.7130   27.8930 H   0  0  0  0  0  0  0  0  0  0  0  0
  1  2  2  0
  2  3  1  0
  3  4  1  0
  4  5  2  0
  5  6  1  0
  6  7  1  0
  6  8  2  0
  8  9  1  0
  9 10  2  0
  3 11  2  0
 11 12  1  0
 12 13  1  0
 13 14  2  0
 14 15  1  0
 15 16  2  0
 16 17  1  0
 17 18  2  0
 18  2  1  0
 10  4  1  0
 18 13  1  0
  5 19  1  0
  7 20  1  0
  8 21  1  0
  9 22  1  0
 10 23  1  0
 11 24  1  0
 14 25  1  0
 15 26  1  0
 16 27  1  0
 17 28  1  0
A    1
 O1 
A    2
 C1 
A    3
 C2 
A    4
 C3 
A    5
 C4 
A    6
 C5 
A    7
 O2 
A    8
 C6 
A    9
 C7 
A   10
 C8 
A   11
 C9 
A   12
 O3 
A   13
 C10
A   14
 C11
A   15
 C12
A   16
 C13
A   17
 C14
A   18
 C15
A   19
 H1 
A   20
 H2 
A   21
 H3 
A   22
 H4 
A   23
 H5 
A   24
 H6 
A   25
 H7 
A   26
 H8 
A   27
 H9 
A   28
 H10
M  END
>  <ref_pdb>  (122) 
x0554_0A

>  <ref_mols>  (122) 
x0451_0A,x0554_0A,x0556_0A,x0566_0A,x0310_0A,x0416_0A

>  <original SMILES>  (122) 
O=c1c(-c2cccc(O)c2)coc2ccccc12

>  <rationale>  (122) 
info cluster #5 (rank 6); hbond:H21; hydroph_interaction:V124; 

>  <cluster_rank>  (122) 
6

>  <N_interactions>  (122) 
2

>  <N_interactions_lost>  (122) 
0

>  <∆∆G>  (122) 
-4.54916

>  <comRMSD>  (122) 
0.337622

>  <N_rotatable_bonds>  (122) 
2

>  <N_unconstrained_atoms>  (122) 
1

>  <N_constrained_atoms>  (122) 
17

$$$$
Z2067347949
     RDKit          3D

 31 33  0  0  0  0  0  0  0  0999 V2000
    7.6250   15.1010   22.6900 C   0  0  0  0  0  0  0  0  0  0  0  0
    8.7610   14.1490   22.7540 C   0  0  0  0  0  0  0  0  0  0  0  0
    8.8300   12.9130   23.3800 C   0  0  0  0  0  0  0  0  0  0  0  0
   10.0460   12.2330   23.2690 C   0  0  0  0  0  0  0  0  0  0  0  0
   10.2870   10.9800   23.8170 C   0  0  0  0  0  0  0  0  0  0  0  0
   11.4200   10.5160   23.8290 O   0  0  0  0  0  0  0  0  0  0  0  0
    9.1900   10.3410   24.3080 N   0  0  0  0  0  0  0  0  0  0  0  0
    8.2600   10.8560   25.1920 C   0  0  0  0  0  0  0  0  0  0  0  0
    8.3520   12.1010   25.7660 C   0  0  0  0  0  0  0  0  0  0  0  0
    7.3710   12.5280   26.6520 C   0  0  0  0  0  0  0  0  0  0  0  0
    6.3160   11.6840   26.9430 C   0  0  0  0  0  0  0  0  0  0  0  0
    5.2850   12.0250   27.8390 C   0  0  0  0  0  0  0  0  0  0  0  0
    4.2420   11.1450   28.1100 C   0  0  0  0  0  0  0  0  0  0  0  0
    4.2360    9.9420   27.4800 C   0  0  0  0  0  0  0  0  0  0  0  0
    5.2600    9.6600   26.6080 C   0  0  0  0  0  0  0  0  0  0  0  0
    6.3050   10.4570   26.3110 C   0  0  0  0  0  0  0  0  0  0  0  0
    7.2420   10.0270   25.4480 N   0  0  0  0  0  0  0  0  0  0  0  0
   10.9170   13.0150   22.5290 C   0  0  0  0  0  0  0  0  0  0  0  0
   10.2400   14.4960   21.9950 S   0  0  0  0  0  0  0  0  0  0  0  0
    6.6700   14.5640   22.7280 H   0  0  0  0  0  0  0  0  0  0  0  0
    7.6610   15.6910   21.7650 H   0  0  0  0  0  0  0  0  0  0  0  0
    7.6550   15.7960   23.5330 H   0  0  0  0  0  0  0  0  0  0  0  0
    7.9830   12.5040   23.9170 H   0  0  0  0  0  0  0  0  0  0  0  0
    9.1250    9.3380   24.2410 H   0  0  0  0  0  0  0  0  0  0  0  0
    9.1710   12.7740   25.5570 H   0  0  0  0  0  0  0  0  0  0  0  0
    7.4470   13.5130   27.1060 H   0  0  0  0  0  0  0  0  0  0  0  0
    5.3020   12.9920   28.3320 H   0  0  0  0  0  0  0  0  0  0  0  0
    3.4510   11.4120   28.8070 H   0  0  0  0  0  0  0  0  0  0  0  0
    3.4440    9.2190   27.6550 H   0  0  0  0  0  0  0  0  0  0  0  0
    5.2380    8.7560   26.1330 H   0  0  0  0  0  0  0  0  0  0  0  0
   11.9410   12.8060   22.2490 H   0  0  0  0  0  0  0  0  0  0  0  0
  1  2  1  0
  2  3  2  0
  3  4  1  0
  4  5  1  0
  5  6  2  0
  5  7  1  0
  7  8  1  0
  8  9  2  0
  9 10  1  0
 10 11  2  0
 11 12  1  0
 12 13  2  0
 13 14  1  0
 14 15  2  0
 15 16  1  0
 16 17  2  0
  4 18  2  0
 18 19  1  0
 19  2  1  0
 17  8  1  0
 16 11  1  0
  1 20  1  0
  1 21  1  0
  1 22  1  0
  3 23  1  0
  7 24  1  0
  9 25  1  0
 10 26  1  0
 12 27  1  0
 13 28  1  0
 14 29  1  0
 15 30  1  0
 18 31  1  0
A    1
 C1 
A    2
 C2 
A    3
 C3 
A    4
 C4 
A    5
 C5 
A    6
 O1 
A    7
 N1 
A    8
 C6 
A    9
 C7 
A   10
 C8 
A   11
 C9 
A   12
 C10
A   13
 C11
A   14
 C12
A   15
 C13
A   16
 C14
A   17
 N2 
A   18
 C15
A   19
 S1 
A   20
 H1 
A   21
 H2 
A   22
 H3 
A   23
 H4 
A   24
 H5 
A   25
 H6 
A   26
 H7 
A   27
 H8 
A   28
 H9 
A   29
 H10
A   30
 H11
A   31
 H12
M  END
>  <ref_pdb>  (123) 
x0554_0A

>  <ref_mols>  (123) 
x0451_0A,x0554_0A,x0556_0A,x0566_0A,x0310_0A,x0416_0A

>  <original SMILES>  (123) 
Cc1cc(C(=O)Nc2ccc3ccccc3n2)cs1

>  <rationale>  (123) 
info cluster #20 (rank 6); hbond:C110+S105; hydroph_interaction:P107; 

>  <cluster_rank>  (123) 
6

>  <N_interactions>  (123) 
3

>  <N_interactions_lost>  (123) 
0

>  <∆∆G>  (123) 
-5.413164

>  <comRMSD>  (123) 
0.900622

>  <N_rotatable_bonds>  (123) 
3

>  <N_unconstrained_atoms>  (123) 
1

>  <N_constrained_atoms>  (123) 
18

$$$$
PV_002741033245
     RDKit          3D

 28 30  0  0  0  0  0  0  0  0999 V2000
    3.5740    9.4370   28.3160 C   0  0  0  0  0  0  0  0  0  0  0  0
    4.4430    9.8300   27.6130 C   0  0  0  0  0  0  0  0  0  0  0  0
    5.2720    9.9070   26.4850 C   0  0  0  0  0  0  0  0  0  0  0  0
    6.2570   10.7990   26.3850 C   0  0  0  0  0  0  0  0  0  0  0  0
    6.9300   10.6980   25.2520 N   0  0  0  0  0  0  0  0  0  0  0  0
    7.5330   11.6660   24.5290 C   0  0  0  0  0  0  0  0  0  0  0  0
    7.1520   12.8060   24.2990 O   0  0  0  0  0  0  0  0  0  0  0  0
    8.7080   11.2400   24.0370 C   0  0  0  0  0  0  0  0  0  0  0  0
    9.0890    9.8480   23.7730 C   0  0  0  0  0  0  0  0  0  0  0  0
   10.6550    9.7100   23.1730 S   0  0  0  0  0  0  0  0  0  0  0  0
   10.8520   11.4440   23.2530 C   0  0  0  0  0  0  0  0  0  0  0  0
   11.9820   12.2990   22.9120 C   0  0  0  0  0  0  0  0  0  0  0  0
   11.8620   13.6710   23.0720 C   0  0  0  0  0  0  0  0  0  0  0  0
   10.6900   14.2410   23.5510 C   0  0  0  0  0  0  0  0  0  0  0  0
    9.6360   13.4440   23.8740 N   0  0  0  0  0  0  0  0  0  0  0  0
    9.7320   12.1190   23.7270 C   0  0  0  0  0  0  0  0  0  0  0  0
    6.3500   11.5930   27.4490 C   0  0  0  0  0  0  0  0  0  0  0  0
    5.1360   11.1160   28.5520 S   0  0  0  0  0  0  0  0  0  0  0  0
    3.0440    9.0800   29.1670 H   0  0  0  0  0  0  0  0  0  0  0  0
    2.8560   10.2120   28.0410 H   0  0  0  0  0  0  0  0  0  0  0  0
    3.3070    8.5820   27.6830 H   0  0  0  0  0  0  0  0  0  0  0  0
    5.1810    9.2680   25.6340 H   0  0  0  0  0  0  0  0  0  0  0  0
    6.8710    9.7770   24.8110 H   0  0  0  0  0  0  0  0  0  0  0  0
    8.3830    9.0480   23.9710 H   0  0  0  0  0  0  0  0  0  0  0  0
   12.9100   11.9020   22.5370 H   0  0  0  0  0  0  0  0  0  0  0  0
   12.7040   14.3090   22.8150 H   0  0  0  0  0  0  0  0  0  0  0  0
   10.5340   15.3040   23.6960 H   0  0  0  0  0  0  0  0  0  0  0  0
    7.0370   12.4100   27.6650 H   0  0  0  0  0  0  0  0  0  0  0  0
  1  2  1  0
  2  3  2  0
  3  4  1  0
  4  5  1  0
  5  6  1  0
  6  7  2  0
  6  8  1  0
  8  9  2  0
  9 10  1  0
 10 11  1  0
 11 12  2  0
 12 13  1  0
 13 14  2  0
 14 15  1  0
 15 16  2  0
  4 17  2  0
 17 18  1  0
 18  2  1  0
 16  8  1  0
 16 11  1  0
  1 19  1  0
  1 20  1  0
  1 21  1  0
  3 22  1  0
  5 23  1  0
  9 24  1  0
 12 25  1  0
 13 26  1  0
 14 27  1  0
 17 28  1  0
A    1
 C1 
A    2
 C2 
A    3
 C3 
A    4
 C4 
A    5
 N1 
A    6
 C5 
A    7
 O1 
A    8
 C6 
A    9
 C7 
A   10
 S1 
A   11
 C8 
A   12
 C9 
A   13
 C10
A   14
 C11
A   15
 N2 
A   16
 C12
A   17
 C13
A   18
 S2 
A   19
 H1 
A   20
 H2 
A   21
 H3 
A   22
 H4 
A   23
 H5 
A   24
 H6 
A   25
 H7 
A   26
 H8 
A   27
 H9 
A   28
 H10
M  END
>  <ref_pdb>  (124) 
x0554_0A

>  <ref_mols>  (124) 
x0451_0A,x0554_0A,x0556_0A,x0566_0A,x0310_0A,x0416_0A

>  <original SMILES>  (124) 
Cc1cc(NC(=O)c2csc3cccnc23)cs1

>  <rationale>  (124) 
info cluster #12 (rank 6); hbond:G127+S105; 

>  <cluster_rank>  (124) 
6

>  <N_interactions>  (124) 
2

>  <N_interactions_lost>  (124) 
0

>  <∆∆G>  (124) 
-6.975685

>  <comRMSD>  (124) 
0.946088

>  <N_rotatable_bonds>  (124) 
3

>  <N_unconstrained_atoms>  (124) 
0

>  <N_constrained_atoms>  (124) 
18

$$$$
Z5533874049
     RDKit          3D

 34 35  0  0  0  0  0  0  0  0999 V2000
   10.1520    9.2920   23.2210 C   0  0  0  0  0  0  0  0  0  0  0  0
   10.7780   10.2500   23.9260 C   0  0  0  0  0  0  0  0  0  0  0  0
   11.8840    9.7030   24.6790 O   0  0  0  0  0  0  0  0  0  0  0  0
   10.3920   11.6900   23.8790 C   0  0  0  0  0  0  0  0  0  0  0  0
    9.3800   12.2930   24.7780 C   0  0  0  0  0  0  0  0  0  0  0  0
    9.0520   13.6070   24.7010 N   0  0  0  0  0  0  0  0  0  0  0  0
    9.7050   14.3160   23.7410 C   0  0  0  0  0  0  0  0  0  0  0  0
   10.6650   13.8590   22.8500 C   0  0  0  0  0  0  0  0  0  0  0  0
   11.2710   14.6660   21.9030 N   0  0  0  0  0  0  0  0  0  0  0  0
   11.4420   14.3510   20.4830 C   0  0  0  0  0  0  0  0  0  0  0  0
   11.5230   15.5880   19.8460 C   0  0  0  0  0  0  0  0  0  0  0  0
   11.1270   15.5740   18.5180 C   0  0  0  0  0  0  0  0  0  0  0  0
   10.4820   16.7040   18.0740 C   0  0  0  0  0  0  0  0  0  0  0  0
   10.6930   17.0490   16.7350 C   0  0  0  0  0  0  0  0  0  0  0  0
    9.9350   18.1690   16.6080 C   0  0  0  0  0  0  0  0  0  0  0  0
    9.2670   18.4920   17.9180 C   0  0  0  0  0  0  0  0  0  0  0  0
    9.6560   17.5240   18.8020 O   0  0  0  0  0  0  0  0  0  0  0  0
   11.0030   12.5160   22.9520 C   0  0  0  0  0  0  0  0  0  0  0  0
   10.3350    9.3000   22.1530 H   0  0  0  0  0  0  0  0  0  0  0  0
   10.2320    8.2940   23.6330 H   0  0  0  0  0  0  0  0  0  0  0  0
    9.0780    9.4970   23.3160 H   0  0  0  0  0  0  0  0  0  0  0  0
    8.8380   11.7320   25.5490 H   0  0  0  0  0  0  0  0  0  0  0  0
    9.4800   15.3730   23.6230 H   0  0  0  0  0  0  0  0  0  0  0  0
   12.0520   15.1950   22.2830 H   0  0  0  0  0  0  0  0  0  0  0  0
   10.5410   13.8300   20.1510 H   0  0  0  0  0  0  0  0  0  0  0  0
   12.2650   13.6590   20.3920 H   0  0  0  0  0  0  0  0  0  0  0  0
   11.0730   16.4100   20.3960 H   0  0  0  0  0  0  0  0  0  0  0  0
   12.5900   15.8120   19.8320 H   0  0  0  0  0  0  0  0  0  0  0  0
   11.9990   15.3800   17.8810 H   0  0  0  0  0  0  0  0  0  0  0  0
   10.4610   14.7190   18.3620 H   0  0  0  0  0  0  0  0  0  0  0  0
   11.3030   16.5390   16.0030 H   0  0  0  0  0  0  0  0  0  0  0  0
    9.8200   18.7460   15.7070 H   0  0  0  0  0  0  0  0  0  0  0  0
    8.5960   19.2620   18.2810 H   0  0  0  0  0  0  0  0  0  0  0  0
   11.7540   12.1020   22.3040 H   0  0  0  0  0  0  0  0  0  0  0  0
  1  2  1  0
  2  3  2  0
  2  4  1  0
  4  5  2  0
  5  6  1  0
  6  7  2  0
  7  8  1  0
  8  9  1  0
  9 10  1  0
 10 11  1  0
 11 12  1  0
 12 13  1  0
 13 14  2  0
 14 15  1  0
 15 16  2  0
 16 17  1  0
  8 18  2  0
 18  4  1  0
 17 13  1  0
  1 19  1  0
  1 20  1  0
  1 21  1  0
  5 22  1  0
  7 23  1  0
  9 24  1  0
 10 25  1  0
 10 26  1  0
 11 27  1  0
 11 28  1  0
 12 29  1  0
 12 30  1  0
 14 31  1  0
 15 32  1  0
 16 33  1  0
 18 34  1  0
A    1
 C1 
A    2
 C2 
A    3
 O1 
A    4
 C3 
A    5
 C4 
A    6
 N1 
A    7
 C5 
A    8
 C6 
A    9
 N2 
A   10
 C7 
A   11
 C8 
A   12
 C9 
A   13
 C10
A   14
 C11
A   15
 C12
A   16
 C13
A   17
 O2 
A   18
 C14
A   19
 H1 
A   20
 H2 
A   21
 H3 
A   22
 H4 
A   23
 H5 
A   24
 H6 
A   25
 H7 
A   26
 H8 
A   27
 H9 
A   28
 H10
A   29
 H11
A   30
 H12
A   31
 H13
A   32
 H14
A   33
 H15
A   34
 H16
M  END
>  <ref_pdb>  (125) 
x0554_0A

>  <ref_mols>  (125) 
x0451_0A,x0554_0A,x0556_0A,x0566_0A,x0310_0A,x0416_0A

>  <original SMILES>  (125) 
CC(=O)c1cncc(NCCCc2ccco2)c1

>  <rationale>  (125) 
info cluster #17 (rank 6); hbond:C110+E106+G108+D109; hydroph_interaction:V124+Y90+R93; pistack:Y90; 

>  <cluster_rank>  (125) 
6

>  <N_interactions>  (125) 
8

>  <N_interactions_lost>  (125) 
0

>  <∆∆G>  (125) 
-9.912384

>  <comRMSD>  (125) 
0.949115

>  <N_rotatable_bonds>  (125) 
7

>  <N_unconstrained_atoms>  (125) 
8

>  <N_constrained_atoms>  (125) 
12

$$$$
Z1250531571
     RDKit          3D

 34 36  0  0  0  0  0  0  0  0999 V2000
    4.2610   14.0320   28.1260 C   0  0  0  0  0  0  0  0  0  0  0  0
    5.0310   12.8470   27.5840 C   0  0  0  0  0  0  0  0  0  0  0  0
    4.8550   11.5470   28.1770 N   0  0  0  0  0  0  0  0  0  0  0  0
    5.7030   10.7860   27.4210 N   0  0  0  0  0  0  0  0  0  0  0  0
    6.2730   11.5850   26.5230 C   0  0  0  0  0  0  0  0  0  0  0  0
    7.2030   11.2550   25.5750 C   0  0  0  0  0  0  0  0  0  0  0  0
    7.6840   12.1340   24.5660 C   0  0  0  0  0  0  0  0  0  0  0  0
    8.6240   11.8460   23.6380 C   0  0  0  0  0  0  0  0  0  0  0  0
    9.1490   10.5280   23.7200 C   0  0  0  0  0  0  0  0  0  0  0  0
   10.1840   10.2400   22.7630 N   0  0  0  0  0  0  0  0  0  0  0  0
   11.2830   10.8620   23.4740 C   0  0  0  0  0  0  0  0  0  0  0  0
   12.2420   10.1470   24.1570 O   0  0  0  0  0  0  0  0  0  0  0  0
   11.2160   12.3530   23.4590 C   0  0  0  0  0  0  0  0  0  0  0  0
   10.6260   13.0920   24.4860 C   0  0  0  0  0  0  0  0  0  0  0  0
   10.0630   12.5430   25.6120 C   0  0  0  0  0  0  0  0  0  0  0  0
   10.6740   14.4980   24.2280 C   0  0  0  0  0  0  0  0  0  0  0  0
   11.2990   14.7880   23.0240 C   0  0  0  0  0  0  0  0  0  0  0  0
   11.8210   13.3950   22.2310 S   0  0  0  0  0  0  0  0  0  0  0  0
    8.7080    9.6300   24.6630 C   0  0  0  0  0  0  0  0  0  0  0  0
    7.7390    9.9980   25.5840 C   0  0  0  0  0  0  0  0  0  0  0  0
    5.8910   12.9030   26.5690 O   0  0  0  0  0  0  0  0  0  0  0  0
    4.9250   14.8610   28.3830 H   0  0  0  0  0  0  0  0  0  0  0  0
    3.5440   14.4040   27.3860 H   0  0  0  0  0  0  0  0  0  0  0  0
    3.7020   13.7430   29.0210 H   0  0  0  0  0  0  0  0  0  0  0  0
    7.2590   13.1460   24.5430 H   0  0  0  0  0  0  0  0  0  0  0  0
    8.9590   12.5730   22.8950 H   0  0  0  0  0  0  0  0  0  0  0  0
   10.3030    9.2620   22.5260 H   0  0  0  0  0  0  0  0  0  0  0  0
    9.8970   11.4710   25.5520 H   0  0  0  0  0  0  0  0  0  0  0  0
    9.0740   12.9290   25.8370 H   0  0  0  0  0  0  0  0  0  0  0  0
   10.6110   12.6480   26.5490 H   0  0  0  0  0  0  0  0  0  0  0  0
   10.2710   15.2440   24.8990 H   0  0  0  0  0  0  0  0  0  0  0  0
   11.4620   15.7850   22.5950 H   0  0  0  0  0  0  0  0  0  0  0  0
    9.1060    8.6130   24.7220 H   0  0  0  0  0  0  0  0  0  0  0  0
    7.4120    9.2800   26.3170 H   0  0  0  0  0  0  0  0  0  0  0  0
  1  2  1  0
  2  3  2  0
  3  4  1  0
  4  5  2  0
  5  6  1  0
  6  7  2  0
  7  8  1  0
  8  9  2  0
  9 10  1  0
 10 11  1  0
 11 12  2  0
 11 13  1  0
 13 14  2  0
 14 15  1  0
 14 16  1  0
 16 17  2  0
 17 18  1  0
  9 19  1  0
 19 20  2  0
  5 21  1  0
 21  2  1  0
 20  6  1  0
 18 13  1  0
  1 22  1  0
  1 23  1  0
  1 24  1  0
  7 25  1  0
  8 26  1  0
 10 27  1  0
 15 28  1  0
 15 29  1  0
 15 30  1  0
 16 31  1  0
 17 32  1  0
 19 33  1  0
 20 34  1  0
A    1
 C1 
A    2
 C2 
A    3
 N1 
A    4
 N2 
A    5
 C3 
A    6
 C4 
A    7
 C5 
A    8
 C6 
A    9
 C7 
A   10
 N3 
A   11
 C8 
A   12
 O1 
A   13
 C9 
A   14
 C10
A   15
 C11
A   16
 C12
A   17
 C13
A   18
 S1 
A   19
 C14
A   20
 C15
A   21
 O2 
A   22
 H1 
A   23
 H2 
A   24
 H3 
A   25
 H4 
A   26
 H5 
A   27
 H6 
A   28
 H7 
A   29
 H8 
A   30
 H9 
A   31
 H10
A   32
 H11
A   33
 H12
A   34
 H13
M  END
>  <ref_pdb>  (126) 
x0554_0A

>  <ref_mols>  (126) 
x0451_0A,x0554_0A,x0556_0A,x0566_0A,x0310_0A,x0416_0A

>  <original SMILES>  (126) 
Cc1nnc(-c2ccc(NC(=O)c3sccc3C)cc2)o1

>  <rationale>  (126) 
info cluster #3 (rank 6); hbond:C110+T126+G108+D109; 

>  <cluster_rank>  (126) 
6

>  <N_interactions>  (126) 
4

>  <N_interactions_lost>  (126) 
0

>  <∆∆G>  (126) 
-6.695251

>  <comRMSD>  (126) 
0.758111

>  <N_rotatable_bonds>  (126) 
5

>  <N_unconstrained_atoms>  (126) 
1

>  <N_constrained_atoms>  (126) 
20

$$$$
PV_002894662132
     RDKit          3D

 30 32  0  0  0  0  0  0  0  0999 V2000
   12.6080   15.5840   21.1730 C   0  0  0  0  0  0  0  0  0  0  0  0
   11.2570   15.1540   21.6630 C   0  0  0  0  0  0  0  0  0  0  0  0
   10.0770   16.0500   21.4520 C   0  0  0  0  0  0  0  0  0  0  0  0
    8.8050   15.7040   21.8850 C   0  0  0  0  0  0  0  0  0  0  0  0
    8.6600   14.4680   22.5320 C   0  0  0  0  0  0  0  0  0  0  0  0
    9.7630   13.6060   22.7410 C   0  0  0  0  0  0  0  0  0  0  0  0
    9.5330   12.4060   23.3710 C   0  0  0  0  0  0  0  0  0  0  0  0
   10.3410   11.2320   23.1810 C   0  0  0  0  0  0  0  0  0  0  0  0
   10.2020    9.9810   23.7180 C   0  0  0  0  0  0  0  0  0  0  0  0
    9.0140    9.9210   24.6350 C   0  0  0  0  0  0  0  0  0  0  0  0
    8.2180   11.0600   24.8480 C   0  0  0  0  0  0  0  0  0  0  0  0
    7.1480   11.0070   25.6930 C   0  0  0  0  0  0  0  0  0  0  0  0
    6.4730    9.9640   26.0920 N   0  0  0  0  0  0  0  0  0  0  0  0
    5.5440   10.5220   26.9140 C   0  0  0  0  0  0  0  0  0  0  0  0
    5.6080   11.8470   27.0420 N   0  0  0  0  0  0  0  0  0  0  0  0
    6.6920   12.1860   26.2190 O   0  0  0  0  0  0  0  0  0  0  0  0
    8.4700   12.2770   24.2250 C   0  0  0  0  0  0  0  0  0  0  0  0
   11.0530   13.9520   22.3090 C   0  0  0  0  0  0  0  0  0  0  0  0
   12.6430   16.6530   21.0790 H   0  0  0  0  0  0  0  0  0  0  0  0
   12.8190   15.1340   20.1970 H   0  0  0  0  0  0  0  0  0  0  0  0
   13.4000   15.2950   21.8550 H   0  0  0  0  0  0  0  0  0  0  0  0
   10.1960   17.0140   20.9440 H   0  0  0  0  0  0  0  0  0  0  0  0
    7.9420   16.3470   21.7400 H   0  0  0  0  0  0  0  0  0  0  0  0
    7.6750   14.1670   22.8790 H   0  0  0  0  0  0  0  0  0  0  0  0
   11.1820   11.3390   22.5140 H   0  0  0  0  0  0  0  0  0  0  0  0
   10.8620    9.1440   23.5090 H   0  0  0  0  0  0  0  0  0  0  0  0
    8.7720    8.9920   25.1380 H   0  0  0  0  0  0  0  0  0  0  0  0
    4.7910    9.9430   27.4410 H   0  0  0  0  0  0  0  0  0  0  0  0
    7.8210   13.1270   24.4160 H   0  0  0  0  0  0  0  0  0  0  0  0
   11.8900   13.2740   22.4770 H   0  0  0  0  0  0  0  0  0  0  0  0
  1  2  1  0
  2  3  2  0
  3  4  1  0
  4  5  2  0
  5  6  1  0
  6  7  1  0
  7  8  2  0
  8  9  1  0
  9 10  2  0
 10 11  1  0
 11 12  1  0
 12 13  2  0
 13 14  1  0
 14 15  2  0
 15 16  1  0
 11 17  2  0
  6 18  2  0
 18  2  1  0
 17  7  1  0
 16 12  1  0
  1 19  1  0
  1 20  1  0
  1 21  1  0
  3 22  1  0
  4 23  1  0
  5 24  1  0
  8 25  1  0
  9 26  1  0
 10 27  1  0
 14 28  1  0
 17 29  1  0
 18 30  1  0
A    1
 C1 
A    2
 C2 
A    3
 C3 
A    4
 C4 
A    5
 C5 
A    6
 C6 
A    7
 C7 
A    8
 C8 
A    9
 C9 
A   10
 C10
A   11
 C11
A   12
 C12
A   13
 N1 
A   14
 C13
A   15
 N2 
A   16
 O1 
A   17
 C14
A   18
 C15
A   19
 H1 
A   20
 H2 
A   21
 H3 
A   22
 H4 
A   23
 H5 
A   24
 H6 
A   25
 H7 
A   26
 H8 
A   27
 H9 
A   28
 H10
A   29
 H11
A   30
 H12
M  END
>  <ref_pdb>  (127) 
x0554_0A

>  <ref_mols>  (127) 
x0451_0A,x0554_0A,x0556_0A,x0566_0A,x0310_0A,x0416_0A

>  <original SMILES>  (127) 
Cc1cccc(-c2cccc(-c3ncno3)c2)c1

>  <rationale>  (127) 
info cluster #11 (rank 7); hydroph_interaction:Y89+Y90+T126; 

>  <cluster_rank>  (127) 
7

>  <N_interactions>  (127) 
3

>  <N_interactions_lost>  (127) 
0

>  <∆∆G>  (127) 
-8.921075

>  <comRMSD>  (127) 
0.580518

>  <N_rotatable_bonds>  (127) 
3

>  <N_unconstrained_atoms>  (127) 
6

>  <N_constrained_atoms>  (127) 
13

$$$$
Z134825724
     RDKit          3D

 27 29  0  0  0  0  0  0  0  0999 V2000
   10.7630   15.4840   20.5960 C   0  0  0  0  0  0  0  0  0  0  0  0
   10.7110   14.4920   21.6830 C   0  0  0  0  0  0  0  0  0  0  0  0
    9.6260   14.0160   22.2490 N   0  0  0  0  0  0  0  0  0  0  0  0
   10.0010   13.1220   23.2390 C   0  0  0  0  0  0  0  0  0  0  0  0
    8.9430   12.4100   24.1240 C   0  0  0  0  0  0  0  0  0  0  0  0
    8.6720   11.0820   24.4280 C   0  0  0  0  0  0  0  0  0  0  0  0
    9.3720    9.8550   23.9240 C   0  0  0  0  0  0  0  0  0  0  0  0
    7.5550   11.0470   25.3690 C   0  0  0  0  0  0  0  0  0  0  0  0
    6.8940    9.9950   26.0110 C   0  0  0  0  0  0  0  0  0  0  0  0
    5.8260   10.2140   26.8780 C   0  0  0  0  0  0  0  0  0  0  0  0
    5.3920   11.4830   27.1410 C   0  0  0  0  0  0  0  0  0  0  0  0
    6.0140   12.5540   26.5430 C   0  0  0  0  0  0  0  0  0  0  0  0
    7.0790   12.3150   25.6730 C   0  0  0  0  0  0  0  0  0  0  0  0
    7.9290   13.5220   24.8800 S   0  0  0  0  0  0  0  0  0  0  0  0
   11.3220   12.9520   23.3860 C   0  0  0  0  0  0  0  0  0  0  0  0
   12.1800   13.9040   22.2750 S   0  0  0  0  0  0  0  0  0  0  0  0
   10.8730   16.4950   20.9990 H   0  0  0  0  0  0  0  0  0  0  0  0
   11.6210   15.2870   19.9400 H   0  0  0  0  0  0  0  0  0  0  0  0
    9.8550   15.4440   19.9830 H   0  0  0  0  0  0  0  0  0  0  0  0
   10.2600    9.6460   24.5290 H   0  0  0  0  0  0  0  0  0  0  0  0
    9.7090    9.9570   22.8890 H   0  0  0  0  0  0  0  0  0  0  0  0
    8.7030    8.9930   23.9500 H   0  0  0  0  0  0  0  0  0  0  0  0
    7.2160    8.9930   25.8360 H   0  0  0  0  0  0  0  0  0  0  0  0
    5.3320    9.3810   27.3560 H   0  0  0  0  0  0  0  0  0  0  0  0
    4.5590   11.6480   27.8200 H   0  0  0  0  0  0  0  0  0  0  0  0
    5.6830   13.5680   26.7440 H   0  0  0  0  0  0  0  0  0  0  0  0
   11.8660   12.3340   24.0780 H   0  0  0  0  0  0  0  0  0  0  0  0
  1  2  1  0
  2  3  2  0
  3  4  1  0
  4  5  1  0
  5  6  2  0
  6  7  1  0
  6  8  1  0
  8  9  2  0
  9 10  1  0
 10 11  2  0
 11 12  1  0
 12 13  2  0
 13 14  1  0
  4 15  2  0
 15 16  1  0
 16  2  1  0
 14  5  1  0
 13  8  1  0
  1 17  1  0
  1 18  1  0
  1 19  1  0
  7 20  1  0
  7 21  1  0
  7 22  1  0
  9 23  1  0
 10 24  1  0
 11 25  1  0
 12 26  1  0
 15 27  1  0
A    1
 C1 
A    2
 C2 
A    3
 N1 
A    4
 C3 
A    5
 C4 
A    6
 C5 
A    7
 C6 
A    8
 C7 
A    9
 C8 
A   10
 C9 
A   11
 C10
A   12
 C11
A   13
 C12
A   14
 S1 
A   15
 C13
A   16
 S2 
A   17
 H1 
A   18
 H2 
A   19
 H3 
A   20
 H4 
A   21
 H5 
A   22
 H6 
A   23
 H7 
A   24
 H8 
A   25
 H9 
A   26
 H10
A   27
 H11
M  END
>  <ref_pdb>  (128) 
x0554_0A

>  <ref_mols>  (128) 
x0451_0A,x0554_0A,x0556_0A,x0566_0A,x0310_0A,x0416_0A

>  <original SMILES>  (128) 
Cc1nc(-c2sc3ccccc3c2C)cs1

>  <rationale>  (128) 
info cluster #13 (rank 7); 

>  <cluster_rank>  (128) 
7

>  <N_interactions>  (128) 
0

>  <N_interactions_lost>  (128) 
0

>  <∆∆G>  (128) 
-8.494126

>  <comRMSD>  (128) 
0.976608

>  <N_rotatable_bonds>  (128) 
3

>  <N_unconstrained_atoms>  (128) 
0

>  <N_constrained_atoms>  (128) 
17

$$$$
Z826867980
     RDKit          3D

 26 27  0  0  0  0  0  0  0  0999 V2000
    6.3510   10.5750   26.4120 C   0  0  0  0  0  0  0  0  0  0  0  0
    6.7130    9.5520   25.5100 O   0  0  0  0  0  0  0  0  0  0  0  0
    7.8230    9.7960   24.7380 C   0  0  0  0  0  0  0  0  0  0  0  0
    8.5380    8.6670   24.2870 C   0  0  0  0  0  0  0  0  0  0  0  0
    9.6600    8.7840   23.4880 C   0  0  0  0  0  0  0  0  0  0  0  0
   10.1100   10.0210   23.1260 C   0  0  0  0  0  0  0  0  0  0  0  0
    9.4410   11.1530   23.5620 C   0  0  0  0  0  0  0  0  0  0  0  0
    9.9020   12.4140   23.1950 N   0  0  0  0  0  0  0  0  0  0  0  0
    9.9830   13.5680   23.9240 C   0  0  0  0  0  0  0  0  0  0  0  0
    9.3700   13.8430   24.9490 O   0  0  0  0  0  0  0  0  0  0  0  0
   10.9160   14.4390   23.2810 C   0  0  0  0  0  0  0  0  0  0  0  0
   10.7860   15.7830   23.3460 N   0  0  0  0  0  0  0  0  0  0  0  0
   11.8100   16.3160   22.6200 O   0  0  0  0  0  0  0  0  0  0  0  0
   12.5260   15.2890   22.1480 C   0  0  0  0  0  0  0  0  0  0  0  0
   12.0530   14.0770   22.5070 C   0  0  0  0  0  0  0  0  0  0  0  0
    8.2930   11.0510   24.3660 C   0  0  0  0  0  0  0  0  0  0  0  0
    5.8820   10.1590   27.3010 H   0  0  0  0  0  0  0  0  0  0  0  0
    7.2680   11.0850   26.7230 H   0  0  0  0  0  0  0  0  0  0  0  0
    5.7030   11.3160   25.9320 H   0  0  0  0  0  0  0  0  0  0  0  0
    8.2280    7.6700   24.5560 H   0  0  0  0  0  0  0  0  0  0  0  0
   10.1860    7.8970   23.1500 H   0  0  0  0  0  0  0  0  0  0  0  0
   10.9930   10.0710   22.4990 H   0  0  0  0  0  0  0  0  0  0  0  0
   10.5040   12.3640   22.3620 H   0  0  0  0  0  0  0  0  0  0  0  0
   13.4100   15.3490   21.5320 H   0  0  0  0  0  0  0  0  0  0  0  0
   12.4580   13.1070   22.2500 H   0  0  0  0  0  0  0  0  0  0  0  0
    7.7830   11.9500   24.6880 H   0  0  0  0  0  0  0  0  0  0  0  0
  1  2  1  0
  2  3  1  0
  3  4  2  0
  4  5  1  0
  5  6  2  0
  6  7  1  0
  7  8  1  0
  8  9  1  0
  9 10  2  0
  9 11  1  0
 11 12  2  0
 12 13  1  0
 13 14  1  0
 14 15  2  0
  7 16  2  0
 16  3  1  0
 15 11  1  0
  1 17  1  0
  1 18  1  0
  1 19  1  0
  4 20  1  0
  5 21  1  0
  6 22  1  0
  8 23  1  0
 14 24  1  0
 15 25  1  0
 16 26  1  0
A    1
 C1 
A    2
 O1 
A    3
 C2 
A    4
 C3 
A    5
 C4 
A    6
 C5 
A    7
 C6 
A    8
 N1 
A    9
 C7 
A   10
 O2 
A   11
 C8 
A   12
 N2 
A   13
 O3 
A   14
 C9 
A   15
 C10
A   16
 C11
A   17
 H1 
A   18
 H2 
A   19
 H3 
A   20
 H4 
A   21
 H5 
A   22
 H6 
A   23
 H7 
A   24
 H8 
A   25
 H9 
A   26
 H10
M  END
>  <ref_pdb>  (129) 
x0554_0A

>  <ref_mols>  (129) 
x0451_0A,x0554_0A,x0556_0A,x0566_0A,x0310_0A,x0416_0A

>  <original SMILES>  (129) 
COc1cccc(NC(=O)c2ccon2)c1

>  <rationale>  (129) 
info cluster #14 (rank 7); hbond:S125+S87; hydroph_interaction:D109+V124; pistack:H21; 

>  <cluster_rank>  (129) 
7

>  <N_interactions>  (129) 
5

>  <N_interactions_lost>  (129) 
0

>  <∆∆G>  (129) 
-8.888109

>  <comRMSD>  (129) 
0.583216

>  <N_rotatable_bonds>  (129) 
4

>  <N_unconstrained_atoms>  (129) 
0

>  <N_constrained_atoms>  (129) 
16

$$$$
Z666615422
     RDKit          3D

 26 28  0  0  0  0  0  0  0  0999 V2000
    8.9420    9.2210   23.7320 O   0  0  0  0  0  0  0  0  0  0  0  0
    8.8340   10.3930   24.0800 C   0  0  0  0  0  0  0  0  0  0  0  0
    9.6040   11.4940   23.6260 N   0  0  0  0  0  0  0  0  0  0  0  0
    9.2650   12.7910   23.7950 C   0  0  0  0  0  0  0  0  0  0  0  0
    9.9710   13.7540   23.0680 C   0  0  0  0  0  0  0  0  0  0  0  0
   10.9750   13.3440   22.2890 C   0  0  0  0  0  0  0  0  0  0  0  0
   11.7340   14.1930   21.5190 C   0  0  0  0  0  0  0  0  0  0  0  0
   11.4440   15.5180   21.5620 C   0  0  0  0  0  0  0  0  0  0  0  0
   10.4470   16.0120   22.3270 N   0  0  0  0  0  0  0  0  0  0  0  0
    9.7210   15.1120   23.0720 C   0  0  0  0  0  0  0  0  0  0  0  0
    8.3220   13.1280   24.5900 N   0  0  0  0  0  0  0  0  0  0  0  0
    7.6210   12.1990   25.2840 C   0  0  0  0  0  0  0  0  0  0  0  0
    6.6560   12.5710   26.2370 C   0  0  0  0  0  0  0  0  0  0  0  0
    5.9380   11.6130   26.9370 C   0  0  0  0  0  0  0  0  0  0  0  0
    4.7520   12.0370   28.1120 Cl  0  0  0  0  0  0  0  0  0  0  0  0
    6.2250   10.2820   26.6430 C   0  0  0  0  0  0  0  0  0  0  0  0
    7.1440    9.8550   25.7400 C   0  0  0  0  0  0  0  0  0  0  0  0
    7.8360   10.8100   25.0650 C   0  0  0  0  0  0  0  0  0  0  0  0
   10.2740   11.2670   22.8880 H   0  0  0  0  0  0  0  0  0  0  0  0
   11.1780   12.3280   22.2730 H   0  0  0  0  0  0  0  0  0  0  0  0
   12.5340   13.8210   20.8980 H   0  0  0  0  0  0  0  0  0  0  0  0
   12.0090   16.2420   20.9750 H   0  0  0  0  0  0  0  0  0  0  0  0
    8.9280   15.5530   23.6700 H   0  0  0  0  0  0  0  0  0  0  0  0
    6.4780   13.6250   26.4190 H   0  0  0  0  0  0  0  0  0  0  0  0
    5.6680    9.5250   27.1840 H   0  0  0  0  0  0  0  0  0  0  0  0
    7.3260    8.8120   25.5600 H   0  0  0  0  0  0  0  0  0  0  0  0
  1  2  2  0
  2  3  1  0
  3  4  1  0
  4  5  1  0
  5  6  2  0
  6  7  1  0
  7  8  2  0
  8  9  1  0
  9 10  2  0
  4 11  2  0
 11 12  1  0
 12 13  2  0
 13 14  1  0
 14 15  1  0
 14 16  2  0
 16 17  1  0
 17 18  2  0
 18  2  1  0
 10  5  1  0
 18 12  1  0
  3 19  1  0
  6 20  1  0
  7 21  1  0
  8 22  1  0
 10 23  1  0
 13 24  1  0
 16 25  1  0
 17 26  1  0
A    1
 O1 
A    2
 C1 
A    3
 N1 
A    4
 C2 
A    5
 C3 
A    6
 C4 
A    7
 C5 
A    8
 C6 
A    9
 N2 
A   10
 C7 
A   11
 N3 
A   12
 C8 
A   13
 C9 
A   14
 C10
A   15
CL1 
A   16
 C11
A   17
 C12
A   18
 C13
A   19
 H1 
A   20
 H2 
A   21
 H3 
A   22
 H4 
A   23
 H5 
A   24
 H6 
A   25
 H7 
A   26
 H8 
M  END
>  <ref_pdb>  (130) 
x0554_0A

>  <ref_mols>  (130) 
x0451_0A,x0554_0A,x0556_0A,x0566_0A,x0310_0A,x0416_0A

>  <original SMILES>  (130) 
O=c1[nH]c(-c2cccnc2)nc2cc(Cl)ccc12

>  <rationale>  (130) 
info cluster #2 (rank 7); hbond:S87; 

>  <cluster_rank>  (130) 
7

>  <N_interactions>  (130) 
1

>  <N_interactions_lost>  (130) 
0

>  <∆∆G>  (130) 
-5.848565

>  <comRMSD>  (130) 
0.541724

>  <N_rotatable_bonds>  (130) 
1

>  <N_unconstrained_atoms>  (130) 
1

>  <N_constrained_atoms>  (130) 
17

$$$$
PV_002977704754
     RDKit          3D

 28 30  0  0  0  0  0  0  0  0999 V2000
    8.8150    9.6670   24.1440 C   0  0  0  0  0  0  0  0  0  0  0  0
    7.8160   10.3930   25.0100 C   0  0  0  0  0  0  0  0  0  0  0  0
    7.0060    9.6240   25.7660 N   0  0  0  0  0  0  0  0  0  0  0  0
    6.1020   10.2380   26.5520 C   0  0  0  0  0  0  0  0  0  0  0  0
    5.9660   11.6130   26.6220 C   0  0  0  0  0  0  0  0  0  0  0  0
    6.8000   12.3980   25.8430 C   0  0  0  0  0  0  0  0  0  0  0  0
    7.7410   11.7720   25.0210 C   0  0  0  0  0  0  0  0  0  0  0  0
    8.5800   12.4880   24.2320 C   0  0  0  0  0  0  0  0  0  0  0  0
    9.9190   12.2880   24.2680 C   0  0  0  0  0  0  0  0  0  0  0  0
   10.4970   13.1390   23.3720 C   0  0  0  0  0  0  0  0  0  0  0  0
   11.8100   13.3340   23.0430 C   0  0  0  0  0  0  0  0  0  0  0  0
   12.1290   14.2760   22.0690 C   0  0  0  0  0  0  0  0  0  0  0  0
   11.1480   15.0120   21.4400 C   0  0  0  0  0  0  0  0  0  0  0  0
    9.8420   14.7890   21.8120 C   0  0  0  0  0  0  0  0  0  0  0  0
    9.4650   13.8590   22.7800 C   0  0  0  0  0  0  0  0  0  0  0  0
    8.2570   13.4420   23.3390 N   0  0  0  0  0  0  0  0  0  0  0  0
    9.2730    8.8400   24.6900 H   0  0  0  0  0  0  0  0  0  0  0  0
    9.6210   10.3260   23.8210 H   0  0  0  0  0  0  0  0  0  0  0  0
    8.3220    9.2640   23.2600 H   0  0  0  0  0  0  0  0  0  0  0  0
    5.4620    9.5910   27.1490 H   0  0  0  0  0  0  0  0  0  0  0  0
    5.2200   12.0620   27.2740 H   0  0  0  0  0  0  0  0  0  0  0  0
    6.7160   13.4800   25.8760 H   0  0  0  0  0  0  0  0  0  0  0  0
   10.4830   11.5910   24.8820 H   0  0  0  0  0  0  0  0  0  0  0  0
   12.5970   12.7710   23.5290 H   0  0  0  0  0  0  0  0  0  0  0  0
   13.1430   14.4490   21.7970 H   0  0  0  0  0  0  0  0  0  0  0  0
   11.4000   15.7450   20.6800 H   0  0  0  0  0  0  0  0  0  0  0  0
    9.0640   15.3820   21.3130 H   0  0  0  0  0  0  0  0  0  0  0  0
    7.3320   13.7830   23.1150 H   0  0  0  0  0  0  0  0  0  0  0  0
  1  2  1  0
  2  3  2  0
  3  4  1  0
  4  5  2  0
  5  6  1  0
  6  7  2  0
  7  8  1  0
  8  9  2  0
  9 10  1  0
 10 11  2  0
 11 12  1  0
 12 13  2  0
 13 14  1  0
 14 15  2  0
 15 16  1  0
  7  2  1  0
 16  8  1  0
 15 10  1  0
  1 17  1  0
  1 18  1  0
  1 19  1  0
  4 20  1  0
  5 21  1  0
  6 22  1  0
  9 23  1  0
 11 24  1  0
 12 25  1  0
 13 26  1  0
 14 27  1  0
 16 28  1  0
A    1
 C1 
A    2
 C2 
A    3
 N1 
A    4
 C3 
A    5
 C4 
A    6
 C5 
A    7
 C6 
A    8
 C7 
A    9
 C8 
A   10
 C9 
A   11
 C10
A   12
 C11
A   13
 C12
A   14
 C13
A   15
 C14
A   16
 N2 
A   17
 H1 
A   18
 H2 
A   19
 H3 
A   20
 H4 
A   21
 H5 
A   22
 H6 
A   23
 H7 
A   24
 H8 
A   25
 H9 
A   26
 H10
A   27
 H11
A   28
 H12
M  END
>  <ref_pdb>  (131) 
x0554_0A

>  <ref_mols>  (131) 
x0451_0A,x0554_0A,x0556_0A,x0566_0A,x0310_0A,x0416_0A

>  <original SMILES>  (131) 
Cc1ncccc1-c1cc2ccccc2[nH]1

>  <rationale>  (131) 
info cluster #10 (rank 7); hbond:G127; hydroph_interaction:Y89; 

>  <cluster_rank>  (131) 
7

>  <N_interactions>  (131) 
2

>  <N_interactions_lost>  (131) 
0

>  <∆∆G>  (131) 
-6.762441

>  <comRMSD>  (131) 
0.955725

>  <N_rotatable_bonds>  (131) 
2

>  <N_unconstrained_atoms>  (131) 
0

>  <N_constrained_atoms>  (131) 
16

$$$$
PV_006911038558
     RDKit          3D

 26 27  0  0  0  0  0  0  0  0999 V2000
    8.4940    7.9250   23.6530 C   0  0  0  0  0  0  0  0  0  0  0  0
    8.5150    9.3210   24.2100 C   0  0  0  0  0  0  0  0  0  0  0  0
    7.5470    9.9700   25.0290 C   0  0  0  0  0  0  0  0  0  0  0  0
    7.7560   11.2950   25.4550 C   0  0  0  0  0  0  0  0  0  0  0  0
    8.9280   11.9580   25.0630 C   0  0  0  0  0  0  0  0  0  0  0  0
    9.2900   13.3410   25.4230 C   0  0  0  0  0  0  0  0  0  0  0  0
    9.9350   13.8960   24.2420 N   0  0  0  0  0  0  0  0  0  0  0  0
   11.3330   14.0530   24.1750 N   0  0  0  0  0  0  0  0  0  0  0  0
   11.6250   14.3110   22.8430 C   0  0  0  0  0  0  0  0  0  0  0  0
   12.8300   14.5500   22.3510 N   0  0  0  0  0  0  0  0  0  0  0  0
   10.3220   14.3550   21.7170 S   0  0  0  0  0  0  0  0  0  0  0  0
    9.2970   13.8690   23.0200 C   0  0  0  0  0  0  0  0  0  0  0  0
    8.0220   13.5180   22.7740 O   0  0  0  0  0  0  0  0  0  0  0  0
    9.8410   11.2900   24.2670 C   0  0  0  0  0  0  0  0  0  0  0  0
    9.6300   10.0010   23.8560 C   0  0  0  0  0  0  0  0  0  0  0  0
    8.3630    7.1880   24.4440 H   0  0  0  0  0  0  0  0  0  0  0  0
    7.7270    7.7680   22.8950 H   0  0  0  0  0  0  0  0  0  0  0  0
    9.4470    7.7330   23.1520 H   0  0  0  0  0  0  0  0  0  0  0  0
    6.6400    9.4620   25.3380 H   0  0  0  0  0  0  0  0  0  0  0  0
    7.0080   11.7770   26.0780 H   0  0  0  0  0  0  0  0  0  0  0  0
    8.4320   13.9700   25.6650 H   0  0  0  0  0  0  0  0  0  0  0  0
    9.9740   13.4830   26.2550 H   0  0  0  0  0  0  0  0  0  0  0  0
   12.8310   14.8120   21.3750 H   0  0  0  0  0  0  0  0  0  0  0  0
   13.5780   13.9020   22.6070 H   0  0  0  0  0  0  0  0  0  0  0  0
   10.7450   11.7930   23.9610 H   0  0  0  0  0  0  0  0  0  0  0  0
   10.3580    9.5070   23.2390 H   0  0  0  0  0  0  0  0  0  0  0  0
  1  2  1  0
  2  3  2  0
  3  4  1  0
  4  5  2  0
  5  6  1  0
  6  7  1  0
  7  8  1  0
  8  9  2  0
  9 10  1  0
  9 11  1  0
 11 12  1  0
 12 13  2  0
  5 14  1  0
 14 15  2  0
 15  2  1  0
 12  7  1  0
  1 16  1  0
  1 17  1  0
  1 18  1  0
  3 19  1  0
  4 20  1  0
  6 21  1  0
  6 22  1  0
 10 23  1  0
 10 24  1  0
 14 25  1  0
 15 26  1  0
A    1
 C1 
A    2
 C2 
A    3
 C3 
A    4
 C4 
A    5
 C5 
A    6
 C6 
A    7
 N1 
A    8
 N2 
A    9
 C7 
A   10
 N3 
A   11
 S1 
A   12
 C8 
A   13
 O1 
A   14
 C9 
A   15
 C10
A   16
 H1 
A   17
 H2 
A   18
 H3 
A   19
 H4 
A   20
 H5 
A   21
 H6 
A   22
 H7 
A   23
 H8 
A   24
 H9 
A   25
 H10
A   26
 H11
M  END
>  <ref_pdb>  (132) 
x0554_0A

>  <ref_mols>  (132) 
x0451_0A,x0554_0A,x0556_0A,x0566_0A,x0310_0A,x0416_0A

>  <original SMILES>  (132) 
Cc1ccc(Cn2nc(N)sc2=O)cc1

>  <rationale>  (132) 
info cluster #1 (rank 7); hbond:G127+H21; hydroph_interaction:D109; 

>  <cluster_rank>  (132) 
7

>  <N_interactions>  (132) 
3

>  <N_interactions_lost>  (132) 
0

>  <∆∆G>  (132) 
-8.028922

>  <comRMSD>  (132) 
0.652461

>  <N_rotatable_bonds>  (132) 
3

>  <N_unconstrained_atoms>  (132) 
0

>  <N_constrained_atoms>  (132) 
15

$$$$
PV_002901128406
     RDKit          3D

 29 31  0  0  0  0  0  0  0  0999 V2000
    9.6080    8.8790   23.7750 C   0  0  0  0  0  0  0  0  0  0  0  0
    9.2130   10.2900   24.1540 C   0  0  0  0  0  0  0  0  0  0  0  0
    8.1220   10.5060   24.8860 C   0  0  0  0  0  0  0  0  0  0  0  0
    7.6610   11.8100   25.2980 C   0  0  0  0  0  0  0  0  0  0  0  0
    6.5530   12.0090   26.0690 C   0  0  0  0  0  0  0  0  0  0  0  0
    5.8350   13.2010   25.9320 C   0  0  0  0  0  0  0  0  0  0  0  0
    4.7210   13.4330   26.7260 C   0  0  0  0  0  0  0  0  0  0  0  0
    4.2650   12.5280   27.6710 C   0  0  0  0  0  0  0  0  0  0  0  0
    3.1940   12.7850   28.4260 F   0  0  0  0  0  0  0  0  0  0  0  0
    5.0630   11.2000   27.8100 C   0  0  0  0  0  0  0  0  0  0  0  0
    6.1650   11.0230   26.9900 C   0  0  0  0  0  0  0  0  0  0  0  0
    8.4050   12.8930   24.8870 C   0  0  0  0  0  0  0  0  0  0  0  0
    9.5310   12.7040   24.1450 C   0  0  0  0  0  0  0  0  0  0  0  0
   10.1690   13.8200   23.8250 N   0  0  0  0  0  0  0  0  0  0  0  0
   11.2970   13.6620   23.1140 C   0  0  0  0  0  0  0  0  0  0  0  0
   11.7430   12.4160   22.7510 C   0  0  0  0  0  0  0  0  0  0  0  0
   11.0860   11.2710   23.0630 N   0  0  0  0  0  0  0  0  0  0  0  0
    9.9640   11.4030   23.7700 C   0  0  0  0  0  0  0  0  0  0  0  0
    9.4120    8.6480   22.7210 H   0  0  0  0  0  0  0  0  0  0  0  0
   10.6780    8.7250   23.9550 H   0  0  0  0  0  0  0  0  0  0  0  0
    9.0470    8.1590   24.3810 H   0  0  0  0  0  0  0  0  0  0  0  0
    7.4960    9.6970   25.2350 H   0  0  0  0  0  0  0  0  0  0  0  0
    6.1440   13.9540   25.2120 H   0  0  0  0  0  0  0  0  0  0  0  0
    4.1780   14.3750   26.6040 H   0  0  0  0  0  0  0  0  0  0  0  0
    4.7680   10.4360   28.5250 H   0  0  0  0  0  0  0  0  0  0  0  0
    6.7420   10.1070   27.0640 H   0  0  0  0  0  0  0  0  0  0  0  0
    8.0970   13.8980   25.1640 H   0  0  0  0  0  0  0  0  0  0  0  0
   11.8500   14.5600   22.8390 H   0  0  0  0  0  0  0  0  0  0  0  0
   12.6640   12.3180   22.1790 H   0  0  0  0  0  0  0  0  0  0  0  0
  1  2  1  0
  2  3  2  0
  3  4  1  0
  4  5  1  0
  5  6  2  0
  6  7  1  0
  7  8  2  0
  8  9  1  0
  8 10  1  0
 10 11  2  0
  4 12  2  0
 12 13  1  0
 13 14  2  0
 14 15  1  0
 15 16  2  0
 16 17  1  0
 17 18  2  0
 18  2  1  0
 11  5  1  0
 18 13  1  0
  1 19  1  0
  1 20  1  0
  1 21  1  0
  3 22  1  0
  6 23  1  0
  7 24  1  0
 10 25  1  0
 11 26  1  0
 12 27  1  0
 15 28  1  0
 16 29  1  0
A    1
 C1 
A    2
 C2 
A    3
 C3 
A    4
 C4 
A    5
 C5 
A    6
 C6 
A    7
 C7 
A    8
 C8 
A    9
 F1 
A   10
 C9 
A   11
 C10
A   12
 C11
A   13
 C12
A   14
 N1 
A   15
 C13
A   16
 C14
A   17
 N2 
A   18
 C15
A   19
 H1 
A   20
 H2 
A   21
 H3 
A   22
 H4 
A   23
 H5 
A   24
 H6 
A   25
 H7 
A   26
 H8 
A   27
 H9 
A   28
 H10
A   29
 H11
M  END
>  <ref_pdb>  (133) 
x0554_0A

>  <ref_mols>  (133) 
x0451_0A,x0554_0A,x0556_0A,x0566_0A,x0310_0A,x0416_0A

>  <original SMILES>  (133) 
Cc1cc(-c2ccc(F)cc2)cc2nccnc12

>  <rationale>  (133) 
info cluster #0 (rank 7); hydroph_interaction:D109; 

>  <cluster_rank>  (133) 
7

>  <N_interactions>  (133) 
1

>  <N_interactions_lost>  (133) 
0

>  <∆∆G>  (133) 
-6.479463

>  <comRMSD>  (133) 
0.942229

>  <N_rotatable_bonds>  (133) 
2

>  <N_unconstrained_atoms>  (133) 
0

>  <N_constrained_atoms>  (133) 
19

$$$$
Z44300960
     RDKit          3D

 28 30  0  0  0  0  0  0  0  0999 V2000
    8.2010   13.8410   24.9220 O   0  0  0  0  0  0  0  0  0  0  0  0
    9.1670   13.3990   24.3390 C   0  0  0  0  0  0  0  0  0  0  0  0
   10.0290   12.2300   24.6350 C   0  0  0  0  0  0  0  0  0  0  0  0
    9.5670   11.1070   25.1310 C   0  0  0  0  0  0  0  0  0  0  0  0
    8.2060   10.9130   25.5250 C   0  0  0  0  0  0  0  0  0  0  0  0
    7.4050    9.8570   25.2130 C   0  0  0  0  0  0  0  0  0  0  0  0
    6.1060    9.8680   25.7310 C   0  0  0  0  0  0  0  0  0  0  0  0
    5.6200   10.8640   26.5100 C   0  0  0  0  0  0  0  0  0  0  0  0
    6.4260   11.9160   26.8110 C   0  0  0  0  0  0  0  0  0  0  0  0
    7.7100   11.9360   26.3200 C   0  0  0  0  0  0  0  0  0  0  0  0
   11.3740   12.6440   24.2560 C   0  0  0  0  0  0  0  0  0  0  0  0
   12.4440   12.4080   24.7740 O   0  0  0  0  0  0  0  0  0  0  0  0
   11.1070   13.4550   23.0820 C   0  0  0  0  0  0  0  0  0  0  0  0
   11.9490   13.7640   22.0650 C   0  0  0  0  0  0  0  0  0  0  0  0
   11.4700   14.5530   21.0320 C   0  0  0  0  0  0  0  0  0  0  0  0
   10.1430   15.0210   21.0490 C   0  0  0  0  0  0  0  0  0  0  0  0
    9.2830   14.6980   22.1070 C   0  0  0  0  0  0  0  0  0  0  0  0
    9.7980   13.9080   23.1160 C   0  0  0  0  0  0  0  0  0  0  0  0
   10.2320   10.2620   25.3010 H   0  0  0  0  0  0  0  0  0  0  0  0
    7.7590    9.0380   24.5930 H   0  0  0  0  0  0  0  0  0  0  0  0
    5.4250    9.1020   25.5460 H   0  0  0  0  0  0  0  0  0  0  0  0
    4.6020   10.8210   26.8890 H   0  0  0  0  0  0  0  0  0  0  0  0
    6.0620   12.7290   27.4320 H   0  0  0  0  0  0  0  0  0  0  0  0
    8.3440   12.7820   26.5720 H   0  0  0  0  0  0  0  0  0  0  0  0
   12.9460   13.3950   22.0750 H   0  0  0  0  0  0  0  0  0  0  0  0
   12.1280   14.8110   20.2010 H   0  0  0  0  0  0  0  0  0  0  0  0
    9.7820   15.6390   20.2300 H   0  0  0  0  0  0  0  0  0  0  0  0
    8.2570   15.0520   22.1320 H   0  0  0  0  0  0  0  0  0  0  0  0
  1  2  2  0
  2  3  1  0
  3  4  2  3
  4  5  1  0
  5  6  2  0
  6  7  1  0
  7  8  2  0
  8  9  1  0
  9 10  2  0
  3 11  1  0
 11 12  2  0
 11 13  1  0
 13 14  2  0
 14 15  1  0
 15 16  2  0
 16 17  1  0
 17 18  2  0
 18  2  1  0
 10  5  1  0
 18 13  1  0
  4 19  1  0
  6 20  1  0
  7 21  1  0
  8 22  1  0
  9 23  1  0
 10 24  1  0
 14 25  1  0
 15 26  1  0
 16 27  1  0
 17 28  1  0
A    1
 O1 
A    2
 C1 
A    3
 C2 
A    4
 C3 
A    5
 C4 
A    6
 C5 
A    7
 C6 
A    8
 C7 
A    9
 C8 
A   10
 C9 
A   11
 C10
A   12
 O2 
A   13
 C11
A   14
 C12
A   15
 C13
A   16
 C14
A   17
 C15
A   18
 C16
A   19
 H1 
A   20
 H2 
A   21
 H3 
A   22
 H4 
A   23
 H5 
A   24
 H6 
A   25
 H7 
A   26
 H8 
A   27
 H9 
A   28
 H10
M  END
>  <ref_pdb>  (134) 
x0554_0A

>  <ref_mols>  (134) 
x0451_0A,x0554_0A,x0556_0A,x0566_0A,x0310_0A,x0416_0A

>  <original SMILES>  (134) 
O=C1C(=Cc2ccccc2)C(=O)c2ccccc21

>  <rationale>  (134) 
info cluster #18 (rank 7); hydroph_interaction:P107; 

>  <cluster_rank>  (134) 
7

>  <N_interactions>  (134) 
1

>  <N_interactions_lost>  (134) 
0

>  <∆∆G>  (134) 
-5.476481

>  <comRMSD>  (134) 
0.747807

>  <N_rotatable_bonds>  (134) 
1

>  <N_unconstrained_atoms>  (134) 
0

>  <N_constrained_atoms>  (134) 
18

$$$$
PV_002153321175
     RDKit          3D

 29 31  0  0  0  0  0  0  0  0999 V2000
   11.8610   12.0440   25.0820 O   0  0  0  0  0  0  0  0  0  0  0  0
   11.1160   12.1590   24.1150 C   0  0  0  0  0  0  0  0  0  0  0  0
   10.0870   11.0550   23.9950 C   0  0  0  0  0  0  0  0  0  0  0  0
   10.3700    9.9140   23.2480 C   0  0  0  0  0  0  0  0  0  0  0  0
    9.3860    8.9340   23.2170 C   0  0  0  0  0  0  0  0  0  0  0  0
    8.2170    9.0490   23.8660 N   0  0  0  0  0  0  0  0  0  0  0  0
    7.9630   10.1610   24.5810 C   0  0  0  0  0  0  0  0  0  0  0  0
    6.7560   10.2820   25.2630 C   0  0  0  0  0  0  0  0  0  0  0  0
    6.4580   11.4250   26.0000 C   0  0  0  0  0  0  0  0  0  0  0  0
    7.3680   12.4560   26.0640 C   0  0  0  0  0  0  0  0  0  0  0  0
    8.5750   12.3370   25.3990 C   0  0  0  0  0  0  0  0  0  0  0  0
    8.8770   11.2130   24.6690 C   0  0  0  0  0  0  0  0  0  0  0  0
   11.2180   13.2440   23.2560 N   0  0  0  0  0  0  0  0  0  0  0  0
   12.1360   14.3440   23.4480 C   0  0  0  0  0  0  0  0  0  0  0  0
   11.4870   15.4290   22.8710 C   0  0  0  0  0  0  0  0  0  0  0  0
   10.4010   15.0600   22.2220 C   0  0  0  0  0  0  0  0  0  0  0  0
   10.2290   13.6190   22.3000 C   0  0  0  0  0  0  0  0  0  0  0  0
   11.2990    9.7880   22.7220 H   0  0  0  0  0  0  0  0  0  0  0  0
    9.5190    8.0130   22.6600 H   0  0  0  0  0  0  0  0  0  0  0  0
    6.0270    9.4830   25.2250 H   0  0  0  0  0  0  0  0  0  0  0  0
    5.5080   11.4970   26.5200 H   0  0  0  0  0  0  0  0  0  0  0  0
    7.1450   13.3520   26.6340 H   0  0  0  0  0  0  0  0  0  0  0  0
    9.2850   13.1580   25.4660 H   0  0  0  0  0  0  0  0  0  0  0  0
   13.0270   14.1220   22.8650 H   0  0  0  0  0  0  0  0  0  0  0  0
   12.4260   14.3240   24.4890 H   0  0  0  0  0  0  0  0  0  0  0  0
   11.7480   16.4710   22.8860 H   0  0  0  0  0  0  0  0  0  0  0  0
    9.7230   15.7210   21.6910 H   0  0  0  0  0  0  0  0  0  0  0  0
    9.2290   13.3070   22.6230 H   0  0  0  0  0  0  0  0  0  0  0  0
   10.5000   13.2230   21.3440 H   0  0  0  0  0  0  0  0  0  0  0  0
  1  2  2  0
  2  3  1  0
  3  4  2  0
  4  5  1  0
  5  6  2  0
  6  7  1  0
  7  8  2  0
  8  9  1  0
  9 10  2  0
 10 11  1  0
 11 12  2  0
  2 13  1  0
 13 14  1  0
 14 15  1  0
 15 16  2  0
 16 17  1  0
 12  3  1  0
 12  7  1  0
 17 13  1  0
  4 18  1  0
  5 19  1  0
  8 20  1  0
  9 21  1  0
 10 22  1  0
 11 23  1  0
 14 24  1  0
 14 25  1  0
 15 26  1  0
 16 27  1  0
 17 28  1  0
 17 29  1  0
A    1
 O1 
A    2
 C1 
A    3
 C2 
A    4
 C3 
A    5
 C4 
A    6
 N1 
A    7
 C5 
A    8
 C6 
A    9
 C7 
A   10
 C8 
A   11
 C9 
A   12
 C10
A   13
 N2 
A   14
 C11
A   15
 C12
A   16
 C13
A   17
 C14
A   18
 H1 
A   19
 H2 
A   20
 H3 
A   21
 H4 
A   22
 H5 
A   23
 H6 
A   24
 H7 
A   25
 H8 
A   26
 H9 
A   27
 H10
A   28
 H11
A   29
 H12
M  END
>  <ref_pdb>  (135) 
x0554_0A

>  <ref_mols>  (135) 
x0451_0A,x0554_0A,x0556_0A,x0566_0A,x0310_0A,x0416_0A

>  <original SMILES>  (135) 
O=C(c1ccnc2ccccc12)N1CC=CC1

>  <rationale>  (135) 
info cluster #9 (rank 7); hbond:G108; hydroph_interaction:Y89; 

>  <cluster_rank>  (135) 
7

>  <N_interactions>  (135) 
2

>  <N_interactions_lost>  (135) 
0

>  <∆∆G>  (135) 
-5.00851

>  <comRMSD>  (135) 
0.669963

>  <N_rotatable_bonds>  (135) 
1

>  <N_unconstrained_atoms>  (135) 
0

>  <N_constrained_atoms>  (135) 
17

$$$$
Z3484501271
     RDKit          3D

 24 25  0  0  0  0  0  0  0  0999 V2000
    6.6250   10.3670   26.2290 C   0  0  0  0  0  0  0  0  0  0  0  0
    7.0280    9.4300   25.2550 O   0  0  0  0  0  0  0  0  0  0  0  0
    8.1300    9.7430   24.5280 C   0  0  0  0  0  0  0  0  0  0  0  0
    8.8410    8.7220   23.9010 C   0  0  0  0  0  0  0  0  0  0  0  0
    9.9680    9.0620   23.1630 C   0  0  0  0  0  0  0  0  0  0  0  0
   10.3530   10.3910   23.0680 C   0  0  0  0  0  0  0  0  0  0  0  0
    9.6310   11.4040   23.6970 C   0  0  0  0  0  0  0  0  0  0  0  0
   10.0640   12.8080   23.5620 C   0  0  0  0  0  0  0  0  0  0  0  0
   11.0890   13.2340   22.9190 N   0  0  0  0  0  0  0  0  0  0  0  0
   11.2820   14.5780   22.9090 C   0  0  0  0  0  0  0  0  0  0  0  0
   12.4350   14.9900   22.1460 C   0  0  0  0  0  0  0  0  0  0  0  0
   10.3350   15.2770   23.6190 N   0  0  0  0  0  0  0  0  0  0  0  0
    9.2490   14.1540   24.2430 S   0  0  0  0  0  0  0  0  0  0  0  0
    8.4990   11.0750   24.4430 C   0  0  0  0  0  0  0  0  0  0  0  0
    7.5150   10.8660   26.6040 H   0  0  0  0  0  0  0  0  0  0  0  0
    5.9660   11.1290   25.8020 H   0  0  0  0  0  0  0  0  0  0  0  0
    6.0930    9.8790   27.0510 H   0  0  0  0  0  0  0  0  0  0  0  0
    8.5290    7.6840   23.9850 H   0  0  0  0  0  0  0  0  0  0  0  0
   10.5440    8.2960   22.6660 H   0  0  0  0  0  0  0  0  0  0  0  0
   11.2330   10.6120   22.4850 H   0  0  0  0  0  0  0  0  0  0  0  0
   12.5470   14.4650   21.2040 H   0  0  0  0  0  0  0  0  0  0  0  0
   12.3820   16.0320   21.8530 H   0  0  0  0  0  0  0  0  0  0  0  0
   13.4070   14.9090   22.5780 H   0  0  0  0  0  0  0  0  0  0  0  0
    7.9130   11.8320   24.9450 H   0  0  0  0  0  0  0  0  0  0  0  0
  1  2  1  0
  2  3  1  0
  3  4  2  0
  4  5  1  0
  5  6  2  0
  6  7  1  0
  7  8  1  0
  8  9  2  0
  9 10  1  0
 10 11  1  0
 10 12  2  0
 12 13  1  0
  7 14  2  0
 14  3  1  0
 13  8  1  0
  1 15  1  0
  1 16  1  0
  1 17  1  0
  4 18  1  0
  5 19  1  0
  6 20  1  0
 11 21  1  0
 11 22  1  0
 11 23  1  0
 14 24  1  0
A    1
 C1 
A    2
 O1 
A    3
 C2 
A    4
 C3 
A    5
 C4 
A    6
 C5 
A    7
 C6 
A    8
 C7 
A    9
 N1 
A   10
 C8 
A   11
 C9 
A   12
 N2 
A   13
 S1 
A   14
 C10
A   15
 H1 
A   16
 H2 
A   17
 H3 
A   18
 H4 
A   19
 H5 
A   20
 H6 
A   21
 H7 
A   22
 H8 
A   23
 H9 
A   24
 H10
M  END
>  <ref_pdb>  (136) 
x0554_0A

>  <ref_mols>  (136) 
x0451_0A,x0554_0A,x0556_0A,x0566_0A,x0310_0A,x0416_0A

>  <original SMILES>  (136) 
COc1cccc(-c2nc(C)ns2)c1

>  <rationale>  (136) 
info cluster #19 (rank 7); hbond:S87; hydroph_interaction:Y89+V124; 

>  <cluster_rank>  (136) 
7

>  <N_interactions>  (136) 
4

>  <N_interactions_lost>  (136) 
0

>  <∆∆G>  (136) 
-7.942467

>  <comRMSD>  (136) 
0.538633

>  <N_rotatable_bonds>  (136) 
4

>  <N_unconstrained_atoms>  (136) 
0

>  <N_constrained_atoms>  (136) 
14

$$$$
Z3234806563
     RDKit          3D

 27 29  0  0  0  0  0  0  0  0999 V2000
    9.8430   15.5170   22.4760 C   0  0  0  0  0  0  0  0  0  0  0  0
   11.2220   14.9010   22.5190 C   0  0  0  0  0  0  0  0  0  0  0  0
   11.2810   13.4450   22.8630 C   0  0  0  0  0  0  0  0  0  0  0  0
   10.1060   12.7580   23.1150 C   0  0  0  0  0  0  0  0  0  0  0  0
   10.1700   11.3890   23.3870 C   0  0  0  0  0  0  0  0  0  0  0  0
    9.3410   10.6290   24.2000 C   0  0  0  0  0  0  0  0  0  0  0  0
    8.2810   10.9910   24.9600 C   0  0  0  0  0  0  0  0  0  0  0  0
    7.3940    9.9760   25.2470 C   0  0  0  0  0  0  0  0  0  0  0  0
    6.2670   10.2200   26.0150 C   0  0  0  0  0  0  0  0  0  0  0  0
    6.0370   11.4970   26.4980 C   0  0  0  0  0  0  0  0  0  0  0  0
    6.9380   12.5230   26.2100 C   0  0  0  0  0  0  0  0  0  0  0  0
    8.0620   12.2730   25.4400 C   0  0  0  0  0  0  0  0  0  0  0  0
    9.8380    9.0050   24.1150 S   0  0  0  0  0  0  0  0  0  0  0  0
   11.0610    9.3680   23.0880 N   0  0  0  0  0  0  0  0  0  0  0  0
   11.1280   10.6450   22.7860 N   0  0  0  0  0  0  0  0  0  0  0  0
    8.8540   13.4070   23.0640 C   0  0  0  0  0  0  0  0  0  0  0  0
    8.7220   14.7540   22.7510 C   0  0  0  0  0  0  0  0  0  0  0  0
    9.8030   16.5750   22.2180 H   0  0  0  0  0  0  0  0  0  0  0  0
   12.1200   15.4750   22.3090 H   0  0  0  0  0  0  0  0  0  0  0  0
   12.2460   12.9400   22.9020 H   0  0  0  0  0  0  0  0  0  0  0  0
    7.5860    8.9840   24.8680 H   0  0  0  0  0  0  0  0  0  0  0  0
    5.5690    9.4170   26.2370 H   0  0  0  0  0  0  0  0  0  0  0  0
    5.1580   11.6980   27.0990 H   0  0  0  0  0  0  0  0  0  0  0  0
    6.7530   13.5240   26.5930 H   0  0  0  0  0  0  0  0  0  0  0  0
    8.7530   13.0860   25.2260 H   0  0  0  0  0  0  0  0  0  0  0  0
    7.9430   12.8460   23.2640 H   0  0  0  0  0  0  0  0  0  0  0  0
    7.7330   15.2050   22.7200 H   0  0  0  0  0  0  0  0  0  0  0  0
  1  2  2  0
  2  3  1  0
  3  4  2  0
  4  5  1  0
  5  6  2  0
  6  7  1  0
  7  8  2  0
  8  9  1  0
  9 10  2  0
 10 11  1  0
 11 12  2  0
  6 13  1  0
 13 14  1  0
 14 15  2  0
  4 16  1  0
 16 17  2  0
 17  1  1  0
 15  5  1  0
 12  7  1  0
  1 18  1  0
  2 19  1  0
  3 20  1  0
  8 21  1  0
  9 22  1  0
 10 23  1  0
 11 24  1  0
 12 25  1  0
 16 26  1  0
 17 27  1  0
A    1
 C1 
A    2
 C2 
A    3
 C3 
A    4
 C4 
A    5
 C5 
A    6
 C6 
A    7
 C7 
A    8
 C8 
A    9
 C9 
A   10
 C10
A   11
 C11
A   12
 C12
A   13
 S1 
A   14
 N1 
A   15
 N2 
A   16
 C13
A   17
 C14
A   18
 H1 
A   19
 H2 
A   20
 H3 
A   21
 H4 
A   22
 H5 
A   23
 H6 
A   24
 H7 
A   25
 H8 
A   26
 H9 
A   27
 H10
M  END
>  <ref_pdb>  (137) 
x0554_0A

>  <ref_mols>  (137) 
x0451_0A,x0554_0A,x0556_0A,x0566_0A,x0310_0A,x0416_0A

>  <original SMILES>  (137) 
c1ccc(-c2nnsc2-c2ccccc2)cc1

>  <rationale>  (137) 
info cluster #6 (rank 7); hbond:C110; hydroph_interaction:Y89; 

>  <cluster_rank>  (137) 
7

>  <N_interactions>  (137) 
2

>  <N_interactions_lost>  (137) 
0

>  <∆∆G>  (137) 
-6.221609

>  <comRMSD>  (137) 
0.496867

>  <N_rotatable_bonds>  (137) 
2

>  <N_unconstrained_atoms>  (137) 
0

>  <N_constrained_atoms>  (137) 
17

$$$$
Z316058154
     RDKit          3D

 29 31  0  0  0  0  0  0  0  0999 V2000
    7.3350   13.2980   26.0220 C   0  0  0  0  0  0  0  0  0  0  0  0
    7.5340   12.0180   25.5980 C   0  0  0  0  0  0  0  0  0  0  0  0
    6.6700   10.9490   26.0860 C   0  0  0  0  0  0  0  0  0  0  0  0
    6.8290    9.6790   25.6990 C   0  0  0  0  0  0  0  0  0  0  0  0
    7.9690    9.3340   24.7030 C   0  0  0  0  0  0  0  0  0  0  0  0
    8.7500   10.3780   24.2640 C   0  0  0  0  0  0  0  0  0  0  0  0
    8.5440   11.6820   24.6980 C   0  0  0  0  0  0  0  0  0  0  0  0
    9.3320   12.6450   24.2400 N   0  0  0  0  0  0  0  0  0  0  0  0
   10.6790   12.2970   23.8330 C   0  0  0  0  0  0  0  0  0  0  0  0
   11.1420   13.4460   23.0340 C   0  0  0  0  0  0  0  0  0  0  0  0
   12.1150   13.4280   22.0840 C   0  0  0  0  0  0  0  0  0  0  0  0
   12.4400   14.8890   21.2730 S   0  0  0  0  0  0  0  0  0  0  0  0
   11.2620   15.6390   22.2210 C   0  0  0  0  0  0  0  0  0  0  0  0
   10.6420   14.7790   23.1160 C   0  0  0  0  0  0  0  0  0  0  0  0
   10.7010   11.1920   23.0670 N   0  0  0  0  0  0  0  0  0  0  0  0
    9.8360   10.1190   23.3060 C   0  0  0  0  0  0  0  0  0  0  0  0
    9.9710    9.0350   22.7420 O   0  0  0  0  0  0  0  0  0  0  0  0
    8.1820   13.9600   26.2270 H   0  0  0  0  0  0  0  0  0  0  0  0
    6.6850   13.8050   25.3010 H   0  0  0  0  0  0  0  0  0  0  0  0
    6.7620   13.2590   26.9550 H   0  0  0  0  0  0  0  0  0  0  0  0
    5.8670   11.1760   26.7850 H   0  0  0  0  0  0  0  0  0  0  0  0
    6.1700    8.9440   26.0840 H   0  0  0  0  0  0  0  0  0  0  0  0
    8.1580    8.3260   24.3530 H   0  0  0  0  0  0  0  0  0  0  0  0
    9.3840   13.3760   24.9470 H   0  0  0  0  0  0  0  0  0  0  0  0
   11.3300   12.1440   24.7050 H   0  0  0  0  0  0  0  0  0  0  0  0
   12.6170   12.4790   21.9040 H   0  0  0  0  0  0  0  0  0  0  0  0
   11.0700   16.6970   22.0750 H   0  0  0  0  0  0  0  0  0  0  0  0
    9.8570   15.1000   23.7980 H   0  0  0  0  0  0  0  0  0  0  0  0
   10.9360   11.3030   22.0810 H   0  0  0  0  0  0  0  0  0  0  0  0
  1  2  1  0
  2  3  2  0
  3  4  1  0
  4  5  2  0
  5  6  1  0
  6  7  2  0
  7  8  1  0
  8  9  1  0
  9 10  1  0
 10 11  2  0
 11 12  1  0
 12 13  1  0
 13 14  2  0
  9 15  1  0
 15 16  1  0
 16 17  2  0
  7  2  1  0
 16  6  1  0
 14 10  1  0
  1 18  1  0
  1 19  1  0
  1 20  1  0
  3 21  1  0
  4 22  1  0
  5 23  1  0
  8 24  1  0
  9 25  1  0
 11 26  1  0
 13 27  1  0
 14 28  1  0
 15 29  1  0
A    1
 C1 
A    2
 C2 
A    3
 C3 
A    4
 C4 
A    5
 C5 
A    6
 C6 
A    7
 C7 
A    8
 N1 
A    9
 C8 
A   10
 C9 
A   11
 C10
A   12
 S1 
A   13
 C11
A   14
 C12
A   15
 N2 
A   16
 C13
A   17
 O1 
A   18
 H1 
A   19
 H2 
A   20
 H3 
A   21
 H4 
A   22
 H5 
A   23
 H6 
A   24
 H7 
A   25
 H8 
A   26
 H9 
A   27
 H10
A   28
 H11
A   29
 H12
M  END
>  <ref_pdb>  (138) 
x0554_0A

>  <ref_mols>  (138) 
x0451_0A,x0554_0A,x0556_0A,x0566_0A,x0310_0A,x0416_0A

>  <original SMILES>  (138) 
Cc1cccc2c1NC(c1ccsc1)NC2=O

>  <rationale>  (138) 
info cluster #7 (rank 7); hbond:S125; pistack:Y89; 

>  <cluster_rank>  (138) 
7

>  <N_interactions>  (138) 
2

>  <N_interactions_lost>  (138) 
0

>  <∆∆G>  (138) 
-6.32518

>  <comRMSD>  (138) 
0.746803

>  <N_rotatable_bonds>  (138) 
2

>  <N_unconstrained_atoms>  (138) 
0

>  <N_constrained_atoms>  (138) 
17

$$$$
Z3236294256
     RDKit          3D

 26 27  0  0  0  0  0  0  0  0999 V2000
    8.9860    9.5390   24.0590 C   0  0  0  0  0  0  0  0  0  0  0  0
    8.0920   10.3020   24.7940 C   0  0  0  0  0  0  0  0  0  0  0  0
    7.3120    9.5370   25.6080 C   0  0  0  0  0  0  0  0  0  0  0  0
    6.2260   10.1150   26.5250 C   0  0  0  0  0  0  0  0  0  0  0  0
    5.3990    9.4100   27.3480 O   0  0  0  0  0  0  0  0  0  0  0  0
    6.1220   11.5330   26.4600 C   0  0  0  0  0  0  0  0  0  0  0  0
    6.9420   12.2790   25.6160 C   0  0  0  0  0  0  0  0  0  0  0  0
    7.9120   11.6760   24.7860 C   0  0  0  0  0  0  0  0  0  0  0  0
    8.6520   12.4780   23.9780 C   0  0  0  0  0  0  0  0  0  0  0  0
    9.9970   12.3000   23.8490 C   0  0  0  0  0  0  0  0  0  0  0  0
   10.7550   13.1180   23.0230 C   0  0  0  0  0  0  0  0  0  0  0  0
   10.0590   14.1160   22.3420 C   0  0  0  0  0  0  0  0  0  0  0  0
    8.6890   14.3190   22.4540 C   0  0  0  0  0  0  0  0  0  0  0  0
    8.0130   13.4730   23.2870 C   0  0  0  0  0  0  0  0  0  0  0  0
    9.8980    9.3520   24.6380 H   0  0  0  0  0  0  0  0  0  0  0  0
    8.5600    8.5640   23.7970 H   0  0  0  0  0  0  0  0  0  0  0  0
    9.2450   10.0460   23.1240 H   0  0  0  0  0  0  0  0  0  0  0  0
    7.5070    8.5000   25.5630 H   0  0  0  0  0  0  0  0  0  0  0  0
    5.0440    8.6480   26.8330 H   0  0  0  0  0  0  0  0  0  0  0  0
    5.4120   12.1380   27.0390 H   0  0  0  0  0  0  0  0  0  0  0  0
    6.8230   13.3610   25.5930 H   0  0  0  0  0  0  0  0  0  0  0  0
   10.4910   11.5040   24.4030 H   0  0  0  0  0  0  0  0  0  0  0  0
   11.8220   13.0130   22.8940 H   0  0  0  0  0  0  0  0  0  0  0  0
   10.6390   14.7700   21.6850 H   0  0  0  0  0  0  0  0  0  0  0  0
    8.1780   15.1080   21.9090 H   0  0  0  0  0  0  0  0  0  0  0  0
    6.9380   13.5960   23.4040 H   0  0  0  0  0  0  0  0  0  0  0  0
  1  2  1  0
  2  3  2  0
  3  4  1  0
  4  5  1  0
  4  6  2  0
  6  7  1  0
  7  8  2  0
  8  9  1  0
  9 10  2  0
 10 11  1  0
 11 12  2  0
 12 13  1  0
 13 14  2  0
  8  2  1  0
 14  9  1  0
  1 15  1  0
  1 16  1  0
  1 17  1  0
  3 18  1  0
  5 19  1  0
  6 20  1  0
  7 21  1  0
 10 22  1  0
 11 23  1  0
 12 24  1  0
 13 25  1  0
 14 26  1  0
A    1
 C1 
A    2
 C2 
A    3
 C3 
A    4
 C4 
A    5
 O1 
A    6
 C5 
A    7
 C6 
A    8
 C7 
A    9
 C8 
A   10
 C9 
A   11
 C10
A   12
 C11
A   13
 C12
A   14
 C13
A   15
 H1 
A   16
 H2 
A   17
 H3 
A   18
 H4 
A   19
 H5 
A   20
 H6 
A   21
 H7 
A   22
 H8 
A   23
 H9 
A   24
 H10
A   25
 H11
A   26
 H12
M  END
>  <ref_pdb>  (139) 
x0554_0A

>  <ref_mols>  (139) 
x0451_0A,x0554_0A,x0556_0A,x0566_0A,x0310_0A,x0416_0A

>  <original SMILES>  (139) 
Cc1cc(O)ccc1-c1ccccc1

>  <rationale>  (139) 
info cluster #15 (rank 7); hbond:S105; 

>  <cluster_rank>  (139) 
7

>  <N_interactions>  (139) 
1

>  <N_interactions_lost>  (139) 
0

>  <∆∆G>  (139) 
-6.937216

>  <comRMSD>  (139) 
0.669916

>  <N_rotatable_bonds>  (139) 
3

>  <N_unconstrained_atoms>  (139) 
0

>  <N_constrained_atoms>  (139) 
15

$$$$
PV_006660330188
     RDKit          3D

 27 28  0  0  0  0  0  0  0  0999 V2000
    5.3830   10.9120   26.9590 N   0  0  0  0  0  0  0  0  0  0  0  0
    6.2900   11.7900   26.4330 C   0  0  0  0  0  0  0  0  0  0  0  0
    6.2470   12.9790   26.7160 O   0  0  0  0  0  0  0  0  0  0  0  0
    7.3400   11.2470   25.5280 C   0  0  0  0  0  0  0  0  0  0  0  0
    7.6290    9.8270   25.2790 C   0  0  0  0  0  0  0  0  0  0  0  0
    8.6310    9.4810   24.4220 C   0  0  0  0  0  0  0  0  0  0  0  0
    9.4850   10.5210   23.6960 C   0  0  0  0  0  0  0  0  0  0  0  0
   10.5130   10.0610   22.8330 N   0  0  0  0  0  0  0  0  0  0  0  0
    9.1670   11.8720   23.9640 C   0  0  0  0  0  0  0  0  0  0  0  0
    9.9470   12.9120   23.3010 C   0  0  0  0  0  0  0  0  0  0  0  0
   11.3090   13.1560   23.5300 C   0  0  0  0  0  0  0  0  0  0  0  0
   11.8620   14.2040   22.7540 C   0  0  0  0  0  0  0  0  0  0  0  0
   11.2650   15.0090   21.8180 C   0  0  0  0  0  0  0  0  0  0  0  0
    9.9550   14.7250   21.6560 C   0  0  0  0  0  0  0  0  0  0  0  0
    9.3330   13.7540   22.3500 N   0  0  0  0  0  0  0  0  0  0  0  0
    8.1210   12.2010   24.8580 C   0  0  0  0  0  0  0  0  0  0  0  0
    5.0020   10.1260   26.4490 H   0  0  0  0  0  0  0  0  0  0  0  0
    4.8770   11.2280   27.7760 H   0  0  0  0  0  0  0  0  0  0  0  0
    7.0640    9.0470   25.7630 H   0  0  0  0  0  0  0  0  0  0  0  0
    8.9120    8.4450   24.1830 H   0  0  0  0  0  0  0  0  0  0  0  0
   10.2670    9.1620   22.4260 H   0  0  0  0  0  0  0  0  0  0  0  0
   10.6670   10.7350   22.0540 H   0  0  0  0  0  0  0  0  0  0  0  0
   11.8870   12.5800   24.2410 H   0  0  0  0  0  0  0  0  0  0  0  0
   12.9140   14.3940   22.9240 H   0  0  0  0  0  0  0  0  0  0  0  0
   11.7850   15.7870   21.2700 H   0  0  0  0  0  0  0  0  0  0  0  0
    9.3370   15.2760   20.9520 H   0  0  0  0  0  0  0  0  0  0  0  0
    7.8990   13.2500   25.0490 H   0  0  0  0  0  0  0  0  0  0  0  0
  1  2  1  0
  2  3  2  0
  2  4  1  0
  4  5  2  0
  5  6  1  0
  6  7  2  0
  7  8  1  0
  7  9  1  0
  9 10  1  0
 10 11  2  0
 11 12  1  0
 12 13  2  0
 13 14  1  0
 14 15  2  0
  9 16  2  0
 16  4  1  0
 15 10  1  0
  1 17  1  0
  1 18  1  0
  5 19  1  0
  6 20  1  0
  8 21  1  0
  8 22  1  0
 11 23  1  0
 12 24  1  0
 13 25  1  0
 14 26  1  0
 16 27  1  0
A    1
 N1 
A    2
 C1 
A    3
 O1 
A    4
 C2 
A    5
 C3 
A    6
 C4 
A    7
 C5 
A    8
 N2 
A    9
 C6 
A   10
 C7 
A   11
 C8 
A   12
 C9 
A   13
 C10
A   14
 C11
A   15
 N3 
A   16
 C12
A   17
 H1 
A   18
 H2 
A   19
 H3 
A   20
 H4 
A   21
 H5 
A   22
 H6 
A   23
 H7 
A   24
 H8 
A   25
 H9 
A   26
 H10
A   27
 H11
M  END
>  <ref_pdb>  (140) 
x0554_0A

>  <ref_mols>  (140) 
x0451_0A,x0554_0A,x0556_0A,x0566_0A,x0310_0A,x0416_0A

>  <original SMILES>  (140) 
NC(=O)c1ccc(N)c(-c2ccccn2)c1

>  <rationale>  (140) 
info cluster #4 (rank 7); hbond:S125+C110+S105; hydroph_interaction:Y89; 

>  <cluster_rank>  (140) 
7

>  <N_interactions>  (140) 
4

>  <N_interactions_lost>  (140) 
0

>  <∆∆G>  (140) 
-6.260917

>  <comRMSD>  (140) 
0.581438

>  <N_rotatable_bonds>  (140) 
3

>  <N_unconstrained_atoms>  (140) 
0

>  <N_constrained_atoms>  (140) 
16

$$$$
PV_002847742509
     RDKit          3D

 23 25  0  0  0  0  0  0  0  0999 V2000
    6.1260   10.2620   26.6900 C   0  0  0  0  0  0  0  0  0  0  0  0
    7.2050    9.8010   25.7200 C   0  0  0  0  0  0  0  0  0  0  0  0
    7.9490   10.7970   25.0250 C   0  0  0  0  0  0  0  0  0  0  0  0
    8.8860   10.3570   24.1790 N   0  0  0  0  0  0  0  0  0  0  0  0
    9.5370   11.3650   23.5590 N   0  0  0  0  0  0  0  0  0  0  0  0
    9.2590   12.7410   23.7760 C   0  0  0  0  0  0  0  0  0  0  0  0
   10.0330   13.7690   23.0160 C   0  0  0  0  0  0  0  0  0  0  0  0
    9.7660   15.1070   22.9830 C   0  0  0  0  0  0  0  0  0  0  0  0
   10.4990   16.0080   22.2700 N   0  0  0  0  0  0  0  0  0  0  0  0
   11.5310   15.5110   21.5730 C   0  0  0  0  0  0  0  0  0  0  0  0
   11.8720   14.2360   21.5380 N   0  0  0  0  0  0  0  0  0  0  0  0
   11.0960   13.4380   22.2720 C   0  0  0  0  0  0  0  0  0  0  0  0
    8.3450   13.1580   24.6130 N   0  0  0  0  0  0  0  0  0  0  0  0
    7.6970   12.1880   25.2300 C   0  0  0  0  0  0  0  0  0  0  0  0
    6.7090   12.5980   26.1260 C   0  0  0  0  0  0  0  0  0  0  0  0
    5.8710   11.6350   26.9030 C   0  0  0  0  0  0  0  0  0  0  0  0
    5.5840    9.4620   27.1930 H   0  0  0  0  0  0  0  0  0  0  0  0
    7.5580    8.8330   25.4160 H   0  0  0  0  0  0  0  0  0  0  0  0
    8.9350   15.5390   23.5360 H   0  0  0  0  0  0  0  0  0  0  0  0
   12.1320   16.1950   20.9960 H   0  0  0  0  0  0  0  0  0  0  0  0
   11.3580   12.4410   22.2540 H   0  0  0  0  0  0  0  0  0  0  0  0
    6.5340   13.6710   26.2690 H   0  0  0  0  0  0  0  0  0  0  0  0
    5.1210   12.0500   27.5790 H   0  0  0  0  0  0  0  0  0  0  0  0
  1  2  2  0
  2  3  1  0
  3  4  2  0
  4  5  1  0
  5  6  2  0
  6  7  1  0
  7  8  2  0
  8  9  1  0
  9 10  2  0
 10 11  1  0
 11 12  2  0
  6 13  1  0
 13 14  2  0
 14 15  1  0
 15 16  2  0
 16  1  1  0
 14  3  1  0
 12  7  1  0
  1 17  1  0
  2 18  1  0
  8 19  1  0
 10 20  1  0
 12 21  1  0
 15 22  1  0
 16 23  1  0
A    1
 C1 
A    2
 C2 
A    3
 C3 
A    4
 N1 
A    5
 N2 
A    6
 C4 
A    7
 C5 
A    8
 C6 
A    9
 N3 
A   10
 C7 
A   11
 N4 
A   12
 C8 
A   13
 N5 
A   14
 C9 
A   15
 C10
A   16
 C11
A   17
 H1 
A   18
 H2 
A   19
 H3 
A   20
 H4 
A   21
 H5 
A   22
 H6 
A   23
 H7 
M  END
>  <ref_pdb>  (141) 
x0554_0A

>  <ref_mols>  (141) 
x0451_0A,x0554_0A,x0556_0A,x0566_0A,x0310_0A,x0416_0A

>  <original SMILES>  (141) 
c1ccc2nc(-c3cncnc3)nnc2c1

>  <rationale>  (141) 
info cluster #16 (rank 7); hbond:S87+E106; 

>  <cluster_rank>  (141) 
7

>  <N_interactions>  (141) 
2

>  <N_interactions_lost>  (141) 
0

>  <∆∆G>  (141) 
-4.165435

>  <comRMSD>  (141) 
0.548845

>  <N_rotatable_bonds>  (141) 
1

>  <N_unconstrained_atoms>  (141) 
0

>  <N_constrained_atoms>  (141) 
16

$$$$
Z1647964773
     RDKit          3D

 31 32  0  0  0  0  0  0  0  0999 V2000
    5.4830   10.7080   26.8440 C   0  0  0  0  0  0  0  0  0  0  0  0
    6.6140   10.2270   26.1410 O   0  0  0  0  0  0  0  0  0  0  0  0
    7.4660   11.2140   25.7650 C   0  0  0  0  0  0  0  0  0  0  0  0
    7.3990   12.3650   26.1690 O   0  0  0  0  0  0  0  0  0  0  0  0
    8.5030   10.8010   24.8080 C   0  0  0  0  0  0  0  0  0  0  0  0
    8.7520    9.4650   24.5520 C   0  0  0  0  0  0  0  0  0  0  0  0
    9.7060    9.0720   23.6410 C   0  0  0  0  0  0  0  0  0  0  0  0
   10.4430   10.0270   22.9910 C   0  0  0  0  0  0  0  0  0  0  0  0
   10.2350   11.3870   23.2510 C   0  0  0  0  0  0  0  0  0  0  0  0
   10.9610   12.3830   22.6470 N   0  0  0  0  0  0  0  0  0  0  0  0
   10.4400   13.7140   22.5160 C   0  0  0  0  0  0  0  0  0  0  0  0
   11.2610   14.4330   21.5000 C   0  0  0  0  0  0  0  0  0  0  0  0
   12.1900   15.2040   22.3630 C   0  0  0  0  0  0  0  0  0  0  0  0
   11.3500   15.6900   23.4040 O   0  0  0  0  0  0  0  0  0  0  0  0
   10.5860   14.5490   23.7800 C   0  0  0  0  0  0  0  0  0  0  0  0
    9.2480   11.7640   24.1580 C   0  0  0  0  0  0  0  0  0  0  0  0
    5.7910   11.1790   27.7790 H   0  0  0  0  0  0  0  0  0  0  0  0
    4.9390   11.4310   26.2310 H   0  0  0  0  0  0  0  0  0  0  0  0
    4.8360    9.8520   27.0560 H   0  0  0  0  0  0  0  0  0  0  0  0
    8.2030    8.7060   25.0640 H   0  0  0  0  0  0  0  0  0  0  0  0
    9.8810    8.0180   23.4400 H   0  0  0  0  0  0  0  0  0  0  0  0
   11.1860    9.6890   22.2840 H   0  0  0  0  0  0  0  0  0  0  0  0
   11.3410   12.0520   21.7680 H   0  0  0  0  0  0  0  0  0  0  0  0
    9.3930   13.7090   22.1860 H   0  0  0  0  0  0  0  0  0  0  0  0
   10.6450   15.1230   20.9100 H   0  0  0  0  0  0  0  0  0  0  0  0
   11.7890   13.7810   20.8040 H   0  0  0  0  0  0  0  0  0  0  0  0
   12.9870   14.5920   22.7860 H   0  0  0  0  0  0  0  0  0  0  0  0
   12.6260   16.0490   21.8250 H   0  0  0  0  0  0  0  0  0  0  0  0
    9.6260   14.9010   24.1690 H   0  0  0  0  0  0  0  0  0  0  0  0
   11.1090   14.0070   24.5750 H   0  0  0  0  0  0  0  0  0  0  0  0
    9.0650   12.8170   24.3640 H   0  0  0  0  0  0  0  0  0  0  0  0
  1  2  1  0
  2  3  1  0
  3  4  2  0
  3  5  1  0
  5  6  2  0
  6  7  1  0
  7  8  2  0
  8  9  1  0
  9 10  1  0
 10 11  1  0
 11 12  1  0
 12 13  1  0
 13 14  1  0
 14 15  1  0
  9 16  2  0
 16  5  1  0
 15 11  1  0
  1 17  1  0
  1 18  1  0
  1 19  1  0
  6 20  1  0
  7 21  1  0
  8 22  1  0
 10 23  1  0
 11 24  1  0
 12 25  1  0
 12 26  1  0
 13 27  1  0
 13 28  1  0
 15 29  1  0
 15 30  1  0
 16 31  1  0
A    1
 C1 
A    2
 O1 
A    3
 C2 
A    4
 O2 
A    5
 C3 
A    6
 C4 
A    7
 C5 
A    8
 C6 
A    9
 C7 
A   10
 N1 
A   11
 C8 
A   12
 C9 
A   13
 C10
A   14
 O3 
A   15
 C11
A   16
 C12
A   17
 H1 
A   18
 H2 
A   19
 H3 
A   20
 H4 
A   21
 H5 
A   22
 H6 
A   23
 H7 
A   24
 H8 
A   25
 H9 
A   26
 H10
A   27
 H11
A   28
 H12
A   29
 H13
A   30
 H14
A   31
 H15
M  END
>  <ref_pdb>  (142) 
x0554_0A

>  <ref_mols>  (142) 
x0451_0A,x0554_0A,x0556_0A,x0566_0A,x0310_0A,x0416_0A

>  <original SMILES>  (142) 
COC(=O)c1cccc(NC2CCOC2)c1

>  <rationale>  (142) 
info cluster #8 (rank 7); hbond:S125+S87; 

>  <cluster_rank>  (142) 
7

>  <N_interactions>  (142) 
2

>  <N_interactions_lost>  (142) 
0

>  <∆∆G>  (142) 
-6.770301

>  <comRMSD>  (142) 
0.726068

>  <N_rotatable_bonds>  (142) 
4

>  <N_unconstrained_atoms>  (142) 
0

>  <N_constrained_atoms>  (142) 
16

$$$$
PV_002936836884
     RDKit          3D

 29 30  0  0  0  0  0  0  0  0999 V2000
   11.4960   13.6490   22.7070 C   0  0  0  0  0  0  0  0  0  0  0  0
   11.6300   12.2070   22.6630 N   0  0  0  0  0  0  0  0  0  0  0  0
   10.6620   11.3760   23.2230 C   0  0  0  0  0  0  0  0  0  0  0  0
   10.5750    9.9200   22.9670 C   0  0  0  0  0  0  0  0  0  0  0  0
    9.5770    9.1950   23.5940 C   0  0  0  0  0  0  0  0  0  0  0  0
    8.6700    9.8300   24.4460 C   0  0  0  0  0  0  0  0  0  0  0  0
    8.6920   11.1980   24.7080 C   0  0  0  0  0  0  0  0  0  0  0  0
    7.8160   11.7840   25.5050 N   0  0  0  0  0  0  0  0  0  0  0  0
    6.5700   11.2000   26.0170 C   0  0  0  0  0  0  0  0  0  0  0  0
    6.1460   10.0570   25.8900 O   0  0  0  0  0  0  0  0  0  0  0  0
    5.8010   12.1070   26.7240 C   0  0  0  0  0  0  0  0  0  0  0  0
    5.2980   11.7080   28.0960 C   0  0  0  0  0  0  0  0  0  0  0  0
    4.5340   12.7190   28.7150 C   0  0  0  0  0  0  0  0  0  0  0  0
    4.2890   13.9120   28.1240 N   0  0  0  0  0  0  0  0  0  0  0  0
    4.7560   14.2340   26.8880 N   0  0  0  0  0  0  0  0  0  0  0  0
    5.4960   13.3430   26.2100 C   0  0  0  0  0  0  0  0  0  0  0  0
    9.6570   12.0030   24.1300 C   0  0  0  0  0  0  0  0  0  0  0  0
   11.7330   14.0520   23.6970 H   0  0  0  0  0  0  0  0  0  0  0  0
   12.1900   14.0950   21.9850 H   0  0  0  0  0  0  0  0  0  0  0  0
   10.4830   13.9690   22.4360 H   0  0  0  0  0  0  0  0  0  0  0  0
   11.8180   11.9070   21.7200 H   0  0  0  0  0  0  0  0  0  0  0  0
   11.2630    9.4070   22.3130 H   0  0  0  0  0  0  0  0  0  0  0  0
    9.4630    8.1230   23.4540 H   0  0  0  0  0  0  0  0  0  0  0  0
    7.9180    9.2580   24.9290 H   0  0  0  0  0  0  0  0  0  0  0  0
    7.9040   12.7900   25.5570 H   0  0  0  0  0  0  0  0  0  0  0  0
    5.5950   10.7020   28.4120 H   0  0  0  0  0  0  0  0  0  0  0  0
    4.0910   12.6160   29.6990 H   0  0  0  0  0  0  0  0  0  0  0  0
    5.8380   13.6640   25.2270 H   0  0  0  0  0  0  0  0  0  0  0  0
    9.6800   13.0700   24.3370 H   0  0  0  0  0  0  0  0  0  0  0  0
  1  2  1  0
  2  3  1  0
  3  4  2  0
  4  5  1  0
  5  6  2  0
  6  7  1  0
  7  8  1  0
  8  9  1  0
  9 10  2  0
  9 11  1  0
 11 12  2  0
 12 13  1  0
 13 14  2  0
 14 15  1  0
 15 16  2  0
  7 17  2  0
 17  3  1  0
 16 11  1  0
  1 18  1  0
  1 19  1  0
  1 20  1  0
  2 21  1  0
  4 22  1  0
  5 23  1  0
  6 24  1  0
  8 25  1  0
 12 26  1  0
 13 27  1  0
 16 28  1  0
 17 29  1  0
A    1
 C1 
A    2
 N1 
A    3
 C2 
A    4
 C3 
A    5
 C4 
A    6
 C5 
A    7
 C6 
A    8
 N2 
A    9
 C7 
A   10
 O1 
A   11
 C8 
A   12
 C9 
A   13
 C10
A   14
 N3 
A   15
 N4 
A   16
 C11
A   17
 C12
A   18
 H1 
A   19
 H2 
A   20
 H3 
A   21
 H4 
A   22
 H5 
A   23
 H6 
A   24
 H7 
A   25
 H8 
A   26
 H9 
A   27
 H10
A   28
 H11
A   29
 H12
M  END
>  <ref_pdb>  (143) 
x0554_0A

>  <ref_mols>  (143) 
x0451_0A,x0554_0A,x0556_0A,x0566_0A,x0310_0A,x0416_0A

>  <original SMILES>  (143) 
CNc1cccc(NC(=O)c2ccnnc2)c1

>  <rationale>  (143) 
info cluster #5 (rank 7); hbond:H21; 

>  <cluster_rank>  (143) 
7

>  <N_interactions>  (143) 
1

>  <N_interactions_lost>  (143) 
0

>  <∆∆G>  (143) 
-6.520175

>  <comRMSD>  (143) 
0.433898

>  <N_rotatable_bonds>  (143) 
4

>  <N_unconstrained_atoms>  (143) 
0

>  <N_constrained_atoms>  (143) 
17

$$$$
PV_002535725126
     RDKit          3D

 26 28  0  0  0  0  0  0  0  0999 V2000
    8.8640    7.6560   22.8670 N   0  0  0  0  0  0  0  0  0  0  0  0
    8.8850    8.6670   23.4310 C   0  0  0  0  0  0  0  0  0  0  0  0
    8.8780   10.0060   24.0930 C   0  0  0  0  0  0  0  0  0  0  0  0
    9.7640   11.0290   23.9400 C   0  0  0  0  0  0  0  0  0  0  0  0
   10.8210   10.8420   23.0590 C   0  0  0  0  0  0  0  0  0  0  0  0
   11.1040    9.7080   22.7170 O   0  0  0  0  0  0  0  0  0  0  0  0
   11.4080   12.0450   22.6700 N   0  0  0  0  0  0  0  0  0  0  0  0
   10.7950   13.3010   22.7030 C   0  0  0  0  0  0  0  0  0  0  0  0
   11.4320   14.5210   22.5610 C   0  0  0  0  0  0  0  0  0  0  0  0
   10.5970   15.6210   22.6220 N   0  0  0  0  0  0  0  0  0  0  0  0
    9.3300   15.2780   22.8070 N   0  0  0  0  0  0  0  0  0  0  0  0
    9.1190   13.6250   22.9160 S   0  0  0  0  0  0  0  0  0  0  0  0
    9.4340   12.0890   24.7110 N   0  0  0  0  0  0  0  0  0  0  0  0
    8.3030   11.7850   25.3840 C   0  0  0  0  0  0  0  0  0  0  0  0
    7.5530   12.5090   26.2790 C   0  0  0  0  0  0  0  0  0  0  0  0
    6.4090   11.9570   26.8380 C   0  0  0  0  0  0  0  0  0  0  0  0
    6.0230   10.6810   26.5020 C   0  0  0  0  0  0  0  0  0  0  0  0
    6.7780    9.9610   25.6090 C   0  0  0  0  0  0  0  0  0  0  0  0
    7.9190   10.4840   25.0290 C   0  0  0  0  0  0  0  0  0  0  0  0
   12.0420   11.9760   21.8770 H   0  0  0  0  0  0  0  0  0  0  0  0
   12.4940   14.6760   22.4090 H   0  0  0  0  0  0  0  0  0  0  0  0
    9.9380   12.9660   24.7750 H   0  0  0  0  0  0  0  0  0  0  0  0
    7.8400   13.5140   26.5580 H   0  0  0  0  0  0  0  0  0  0  0  0
    5.8160   12.5330   27.5440 H   0  0  0  0  0  0  0  0  0  0  0  0
    5.1300   10.2420   26.9380 H   0  0  0  0  0  0  0  0  0  0  0  0
    6.4690    8.9930   25.3680 H   0  0  0  0  0  0  0  0  0  0  0  0
  1  2  3  0
  2  3  1  0
  3  4  2  0
  4  5  1  0
  5  6  2  0
  5  7  1  0
  7  8  1  0
  8  9  2  0
  9 10  1  0
 10 11  2  0
 11 12  1  0
  4 13  1  0
 13 14  1  0
 14 15  2  0
 15 16  1  0
 16 17  2  0
 17 18  1  0
 18 19  2  0
 19  3  1  0
 12  8  1  0
 19 14  1  0
  7 20  1  0
  9 21  1  0
 13 22  1  0
 15 23  1  0
 16 24  1  0
 17 25  1  0
 18 26  1  0
A    1
 N1 
A    2
 C1 
A    3
 C2 
A    4
 C3 
A    5
 C4 
A    6
 O1 
A    7
 N2 
A    8
 C5 
A    9
 C6 
A   10
 N3 
A   11
 N4 
A   12
 S1 
A   13
 N5 
A   14
 C7 
A   15
 C8 
A   16
 C9 
A   17
 C10
A   18
 C11
A   19
 C12
A   20
 H1 
A   21
 H2 
A   22
 H3 
A   23
 H4 
A   24
 H5 
A   25
 H6 
A   26
 H7 
M  END
>  <ref_pdb>  (144) 
x0554_0A

>  <ref_mols>  (144) 
x0451_0A,x0554_0A,x0556_0A,x0566_0A,x0310_0A,x0416_0A

>  <original SMILES>  (144) 
N#Cc1c(C(=O)Nc2cnns2)[nH]c2ccccc12

>  <rationale>  (144) 
info cluster #20 (rank 7); hbond:S87+C110; hydroph_interaction:P107; 

>  <cluster_rank>  (144) 
7

>  <N_interactions>  (144) 
3

>  <N_interactions_lost>  (144) 
0

>  <∆∆G>  (144) 
-4.575382

>  <comRMSD>  (144) 
0.581323

>  <N_rotatable_bonds>  (144) 
2

>  <N_unconstrained_atoms>  (144) 
1

>  <N_constrained_atoms>  (144) 
18

$$$$
PV_003602613531
     RDKit          3D

 28 30  0  0  0  0  0  0  0  0999 V2000
    3.3560    9.1020   28.0420 C   0  0  0  0  0  0  0  0  0  0  0  0
    4.5020    9.9600   27.6690 C   0  0  0  0  0  0  0  0  0  0  0  0
    5.2170    9.8850   26.5400 C   0  0  0  0  0  0  0  0  0  0  0  0
    6.2510   10.8090   26.4400 C   0  0  0  0  0  0  0  0  0  0  0  0
    6.9760   10.7290   25.3310 N   0  0  0  0  0  0  0  0  0  0  0  0
    7.4860   11.7010   24.5750 C   0  0  0  0  0  0  0  0  0  0  0  0
    7.0600   12.8160   24.3230 O   0  0  0  0  0  0  0  0  0  0  0  0
    8.6540   11.2660   24.0960 C   0  0  0  0  0  0  0  0  0  0  0  0
    9.7520   12.1570   23.7310 C   0  0  0  0  0  0  0  0  0  0  0  0
    9.5960   13.6200   23.8590 C   0  0  0  0  0  0  0  0  0  0  0  0
   10.6510   14.3550   23.5080 C   0  0  0  0  0  0  0  0  0  0  0  0
   11.8140   13.7680   23.0560 C   0  0  0  0  0  0  0  0  0  0  0  0
   11.9550   12.2440   22.9300 C   0  0  0  0  0  0  0  0  0  0  0  0
   10.8800   11.4240   23.2790 C   0  0  0  0  0  0  0  0  0  0  0  0
   10.6890   10.0750   23.2780 N   0  0  0  0  0  0  0  0  0  0  0  0
    9.1560    9.6640   23.8170 S   0  0  0  0  0  0  0  0  0  0  0  0
    6.3180   11.6260   27.5270 C   0  0  0  0  0  0  0  0  0  0  0  0
    5.1070   11.2110   28.6550 S   0  0  0  0  0  0  0  0  0  0  0  0
    3.1320    8.3830   27.2450 H   0  0  0  0  0  0  0  0  0  0  0  0
    2.4630    9.7060   28.2280 H   0  0  0  0  0  0  0  0  0  0  0  0
    3.5770    8.5350   28.9520 H   0  0  0  0  0  0  0  0  0  0  0  0
    5.0040    9.1650   25.7800 H   0  0  0  0  0  0  0  0  0  0  0  0
    6.9060    9.8300   24.8560 H   0  0  0  0  0  0  0  0  0  0  0  0
    8.6950   14.1090   24.2120 H   0  0  0  0  0  0  0  0  0  0  0  0
   10.5980   15.4380   23.5780 H   0  0  0  0  0  0  0  0  0  0  0  0
   12.6570   14.4000   22.7790 H   0  0  0  0  0  0  0  0  0  0  0  0
   12.8900   11.8490   22.5690 H   0  0  0  0  0  0  0  0  0  0  0  0
    6.9960   12.4370   27.7470 H   0  0  0  0  0  0  0  0  0  0  0  0
  1  2  1  0
  2  3  2  0
  3  4  1  0
  4  5  1  0
  5  6  1  0
  6  7  2  0
  6  8  1  0
  8  9  2  0
  9 10  1  0
 10 11  2  0
 11 12  1  0
 12 13  2  0
 13 14  1  0
 14 15  2  0
 15 16  1  0
  4 17  2  0
 17 18  1  0
 18  2  1  0
 16  8  1  0
 14  9  1  0
  1 19  1  0
  1 20  1  0
  1 21  1  0
  3 22  1  0
  5 23  1  0
 10 24  1  0
 11 25  1  0
 12 26  1  0
 13 27  1  0
 17 28  1  0
A    1
 C1 
A    2
 C2 
A    3
 C3 
A    4
 C4 
A    5
 N1 
A    6
 C5 
A    7
 O1 
A    8
 C6 
A    9
 C7 
A   10
 C8 
A   11
 C9 
A   12
 C10
A   13
 C11
A   14
 C12
A   15
 N2 
A   16
 S1 
A   17
 C13
A   18
 S2 
A   19
 H1 
A   20
 H2 
A   21
 H3 
A   22
 H4 
A   23
 H5 
A   24
 H6 
A   25
 H7 
A   26
 H8 
A   27
 H9 
A   28
 H10
M  END
>  <ref_pdb>  (145) 
x0554_0A

>  <ref_mols>  (145) 
x0451_0A,x0554_0A,x0556_0A,x0566_0A,x0310_0A,x0416_0A

>  <original SMILES>  (145) 
Cc1cc(NC(=O)c2snc3ccccc23)cs1

>  <rationale>  (145) 
info cluster #12 (rank 7); hbond:C110+G127+S105; 

>  <cluster_rank>  (145) 
7

>  <N_interactions>  (145) 
3

>  <N_interactions_lost>  (145) 
0

>  <∆∆G>  (145) 
-5.135741

>  <comRMSD>  (145) 
0.963101

>  <N_rotatable_bonds>  (145) 
3

>  <N_unconstrained_atoms>  (145) 
0

>  <N_constrained_atoms>  (145) 
18

$$$$
Z2612190028
     RDKit          3D

 32 33  0  0  0  0  0  0  0  0999 V2000
   10.6120    9.2730   22.6370 C   0  0  0  0  0  0  0  0  0  0  0  0
   10.8440   10.3920   23.6000 C   0  0  0  0  0  0  0  0  0  0  0  0
   11.8170   10.3390   24.3540 O   0  0  0  0  0  0  0  0  0  0  0  0
    9.9610   11.3620   23.5660 N   0  0  0  0  0  0  0  0  0  0  0  0
   10.2900   12.7120   23.5560 C   0  0  0  0  0  0  0  0  0  0  0  0
    9.4950   13.3900   24.4610 C   0  0  0  0  0  0  0  0  0  0  0  0
    8.7420   12.5180   25.2330 C   0  0  0  0  0  0  0  0  0  0  0  0
    7.3950   13.0230   25.3740 N   0  0  0  0  0  0  0  0  0  0  0  0
    6.5230   12.1490   25.9990 C   0  0  0  0  0  0  0  0  0  0  0  0
    5.3030   12.6180   26.5130 C   0  0  0  0  0  0  0  0  0  0  0  0
    4.4390   11.7420   27.1370 C   0  0  0  0  0  0  0  0  0  0  0  0
    4.8160   10.4280   27.2290 C   0  0  0  0  0  0  0  0  0  0  0  0
    4.0170    9.4890   27.8340 C   0  0  0  0  0  0  0  0  0  0  0  0
    6.0770    9.9420   26.6960 N   0  0  0  0  0  0  0  0  0  0  0  0
    6.8900   10.8540   26.0930 N   0  0  0  0  0  0  0  0  0  0  0  0
    8.7510   11.2350   24.3630 C   0  0  0  0  0  0  0  0  0  0  0  0
   10.8910    8.3170   23.0850 H   0  0  0  0  0  0  0  0  0  0  0  0
   11.1850    9.4050   21.7310 H   0  0  0  0  0  0  0  0  0  0  0  0
    9.5590    9.2040   22.3670 H   0  0  0  0  0  0  0  0  0  0  0  0
   11.3670   12.7650   23.5500 H   0  0  0  0  0  0  0  0  0  0  0  0
    9.9960   13.0660   22.5630 H   0  0  0  0  0  0  0  0  0  0  0  0
   10.1060   14.0490   25.0870 H   0  0  0  0  0  0  0  0  0  0  0  0
    8.8190   14.0470   23.8980 H   0  0  0  0  0  0  0  0  0  0  0  0
    9.1340   12.2330   26.2040 H   0  0  0  0  0  0  0  0  0  0  0  0
    7.3650   13.8730   25.9370 H   0  0  0  0  0  0  0  0  0  0  0  0
    5.0340   13.6620   26.4230 H   0  0  0  0  0  0  0  0  0  0  0  0
    3.4930   12.0870   27.5390 H   0  0  0  0  0  0  0  0  0  0  0  0
    3.6520    8.6630   27.2270 H   0  0  0  0  0  0  0  0  0  0  0  0
    4.5480    9.0760   28.6930 H   0  0  0  0  0  0  0  0  0  0  0  0
    3.1260    9.9860   28.2320 H   0  0  0  0  0  0  0  0  0  0  0  0
    8.8300   10.3190   24.9600 H   0  0  0  0  0  0  0  0  0  0  0  0
    7.8670   11.1590   23.7250 H   0  0  0  0  0  0  0  0  0  0  0  0
  1  2  1  0
  2  3  2  0
  2  4  1  0
  4  5  1  0
  5  6  1  0
  6  7  1  0
  7  8  1  0
  8  9  1  0
  9 10  2  0
 10 11  1  0
 11 12  2  0
 12 13  1  0
 12 14  1  0
 14 15  2  0
  7 16  1  0
 16  4  1  0
 15  9  1  0
  1 17  1  0
  1 18  1  0
  1 19  1  0
  5 20  1  0
  5 21  1  0
  6 22  1  0
  6 23  1  0
  7 24  1  0
  8 25  1  0
 10 26  1  0
 11 27  1  0
 13 28  1  0
 13 29  1  0
 13 30  1  0
 16 31  1  0
 16 32  1  0
A    1
 C1 
A    2
 C2 
A    3
 O1 
A    4
 N1 
A    5
 C3 
A    6
 C4 
A    7
 C5 
A    8
 N2 
A    9
 C6 
A   10
 C7 
A   11
 C8 
A   12
 C9 
A   13
 C10
A   14
 N3 
A   15
 N4 
A   16
 C11
A   17
 H1 
A   18
 H2 
A   19
 H3 
A   20
 H4 
A   21
 H5 
A   22
 H6 
A   23
 H7 
A   24
 H8 
A   25
 H9 
A   26
 H10
A   27
 H11
A   28
 H12
A   29
 H13
A   30
 H14
A   31
 H15
A   32
 H16
M  END
>  <ref_pdb>  (146) 
x0554_0A

>  <ref_mols>  (146) 
x0451_0A,x0554_0A,x0556_0A,x0566_0A,x0310_0A,x0416_0A

>  <original SMILES>  (146) 
CC(=O)N1CCC(Nc2ccc(C)nn2)C1

>  <rationale>  (146) 
info cluster #17 (rank 7); hbond:C110+G108+D109+S105; hydroph_interaction:V124; 

>  <cluster_rank>  (146) 
7

>  <N_interactions>  (146) 
5

>  <N_interactions_lost>  (146) 
0

>  <∆∆G>  (146) 
-6.094314

>  <comRMSD>  (146) 
0.999064

>  <N_rotatable_bonds>  (146) 
4

>  <N_unconstrained_atoms>  (146) 
2

>  <N_constrained_atoms>  (146) 
16

$$$$
Z295512640
     RDKit          3D

 32 34  0  0  0  0  0  0  0  0999 V2000
    4.3120   13.9730   28.0880 C   0  0  0  0  0  0  0  0  0  0  0  0
    4.9150   12.7930   27.6870 C   0  0  0  0  0  0  0  0  0  0  0  0
    4.7220   11.5560   28.1770 N   0  0  0  0  0  0  0  0  0  0  0  0
    5.5580   10.8010   27.4230 C   0  0  0  0  0  0  0  0  0  0  0  0
    6.1940   11.6190   26.5460 C   0  0  0  0  0  0  0  0  0  0  0  0
    7.1750   11.2440   25.5820 C   0  0  0  0  0  0  0  0  0  0  0  0
    7.6820    9.9890   25.6440 C   0  0  0  0  0  0  0  0  0  0  0  0
    8.7400    9.5760   24.6810 C   0  0  0  0  0  0  0  0  0  0  0  0
    9.1480   10.5860   23.7320 C   0  0  0  0  0  0  0  0  0  0  0  0
   10.1470   10.3740   22.8420 N   0  0  0  0  0  0  0  0  0  0  0  0
   11.2240   10.9030   23.3640 C   0  0  0  0  0  0  0  0  0  0  0  0
   12.0740   10.2460   23.9430 O   0  0  0  0  0  0  0  0  0  0  0  0
   11.1990   12.3000   23.3160 C   0  0  0  0  0  0  0  0  0  0  0  0
   10.5160   13.0000   24.2700 C   0  0  0  0  0  0  0  0  0  0  0  0
   10.5470   14.3630   24.1180 C   0  0  0  0  0  0  0  0  0  0  0  0
   11.2720   14.7640   23.0230 C   0  0  0  0  0  0  0  0  0  0  0  0
   11.9120   13.4210   22.2000 S   0  0  0  0  0  0  0  0  0  0  0  0
    8.5610   11.8410   23.7160 C   0  0  0  0  0  0  0  0  0  0  0  0
    7.5910   12.1620   24.6290 C   0  0  0  0  0  0  0  0  0  0  0  0
    5.7250   12.9210   26.7690 O   0  0  0  0  0  0  0  0  0  0  0  0
    4.4810   14.3380   29.0950 H   0  0  0  0  0  0  0  0  0  0  0  0
    3.2260   13.8760   27.9960 H   0  0  0  0  0  0  0  0  0  0  0  0
    4.5910   14.7620   27.3830 H   0  0  0  0  0  0  0  0  0  0  0  0
    5.7140    9.7260   27.4940 H   0  0  0  0  0  0  0  0  0  0  0  0
    7.3350    9.2890   26.3850 H   0  0  0  0  0  0  0  0  0  0  0  0
    9.2510    8.6120   24.6140 H   0  0  0  0  0  0  0  0  0  0  0  0
   10.2380    9.4460   22.4330 H   0  0  0  0  0  0  0  0  0  0  0  0
    9.9790   12.5410   25.0940 H   0  0  0  0  0  0  0  0  0  0  0  0
   10.0510   15.0570   24.7910 H   0  0  0  0  0  0  0  0  0  0  0  0
   11.4250   15.7950   22.7180 H   0  0  0  0  0  0  0  0  0  0  0  0
    8.8590   12.6000   23.0000 H   0  0  0  0  0  0  0  0  0  0  0  0
    7.1530   13.1660   24.6010 H   0  0  0  0  0  0  0  0  0  0  0  0
  1  2  1  0
  2  3  2  0
  3  4  1  0
  4  5  2  0
  5  6  1  0
  6  7  2  0
  7  8  1  0
  8  9  2  0
  9 10  1  0
 10 11  1  0
 11 12  2  0
 11 13  1  0
 13 14  2  0
 14 15  1  0
 15 16  2  0
 16 17  1  0
  9 18  1  0
 18 19  2  0
  5 20  1  0
 20  2  1  0
 19  6  1  0
 17 13  1  0
  1 21  1  0
  1 22  1  0
  1 23  1  0
  4 24  1  0
  7 25  1  0
  8 26  1  0
 10 27  1  0
 14 28  1  0
 15 29  1  0
 16 30  1  0
 18 31  1  0
 19 32  1  0
A    1
 C1 
A    2
 C2 
A    3
 N1 
A    4
 C3 
A    5
 C4 
A    6
 C5 
A    7
 C6 
A    8
 C7 
A    9
 C8 
A   10
 N2 
A   11
 C9 
A   12
 O1 
A   13
 C10
A   14
 C11
A   15
 C12
A   16
 C13
A   17
 S1 
A   18
 C14
A   19
 C15
A   20
 O2 
A   21
 H1 
A   22
 H2 
A   23
 H3 
A   24
 H4 
A   25
 H5 
A   26
 H6 
A   27
 H7 
A   28
 H8 
A   29
 H9 
A   30
 H10
A   31
 H11
A   32
 H12
M  END
>  <ref_pdb>  (147) 
x0554_0A

>  <ref_mols>  (147) 
x0451_0A,x0554_0A,x0556_0A,x0566_0A,x0310_0A,x0416_0A

>  <original SMILES>  (147) 
Cc1ncc(-c2ccc(NC(=O)c3cccs3)cc2)o1

>  <rationale>  (147) 
info cluster #3 (rank 7); hbond:C110+T126+G108+D109; 

>  <cluster_rank>  (147) 
7

>  <N_interactions>  (147) 
4

>  <N_interactions_lost>  (147) 
0

>  <∆∆G>  (147) 
-5.382283

>  <comRMSD>  (147) 
0.732574

>  <N_rotatable_bonds>  (147) 
4

>  <N_unconstrained_atoms>  (147) 
0

>  <N_constrained_atoms>  (147) 
20

$$$$
Z4512265538
     RDKit          3D

 30 31  0  0  0  0  0  0  0  0999 V2000
    8.6060    8.9120   24.1860 C   0  0  0  0  0  0  0  0  0  0  0  0
    8.3900   10.2290   24.6280 C   0  0  0  0  0  0  0  0  0  0  0  0
    7.3620   10.7150   25.4380 C   0  0  0  0  0  0  0  0  0  0  0  0
    6.3100   10.0320   25.9980 C   0  0  0  0  0  0  0  0  0  0  0  0
    7.5040   12.1580   25.6730 C   0  0  0  0  0  0  0  0  0  0  0  0
    8.5720   12.4820   24.7570 N   0  0  0  0  0  0  0  0  0  0  0  0
    9.1440   13.7710   24.6470 C   0  0  0  0  0  0  0  0  0  0  0  0
    8.8410   14.7150   25.3640 O   0  0  0  0  0  0  0  0  0  0  0  0
   10.1350   13.9700   23.6430 C   0  0  0  0  0  0  0  0  0  0  0  0
   11.5030   14.0720   24.0230 C   0  0  0  0  0  0  0  0  0  0  0  0
   12.5030   14.2880   22.8980 C   0  0  0  0  0  0  0  0  0  0  0  0
   12.0520   14.3770   21.5900 C   0  0  0  0  0  0  0  0  0  0  0  0
   10.6970   14.2640   21.2980 C   0  0  0  0  0  0  0  0  0  0  0  0
    9.7530   14.0640   22.3090 C   0  0  0  0  0  0  0  0  0  0  0  0
    9.3070   11.3280   24.2600 C   0  0  0  0  0  0  0  0  0  0  0  0
    8.0690    8.7200   23.2590 H   0  0  0  0  0  0  0  0  0  0  0  0
    8.3100    8.2010   24.9560 H   0  0  0  0  0  0  0  0  0  0  0  0
    9.6700    8.7540   23.9880 H   0  0  0  0  0  0  0  0  0  0  0  0
    5.4680   10.5660   26.4200 H   0  0  0  0  0  0  0  0  0  0  0  0
    6.5200    9.3090   26.7520 H   0  0  0  0  0  0  0  0  0  0  0  0
    5.8520    9.4680   25.2080 H   0  0  0  0  0  0  0  0  0  0  0  0
    6.5980   12.7140   25.4070 H   0  0  0  0  0  0  0  0  0  0  0  0
    7.8080   12.3730   26.7000 H   0  0  0  0  0  0  0  0  0  0  0  0
   11.8220   14.0010   25.0600 H   0  0  0  0  0  0  0  0  0  0  0  0
   13.5430   14.3720   23.1200 H   0  0  0  0  0  0  0  0  0  0  0  0
   12.7610   14.5340   20.7880 H   0  0  0  0  0  0  0  0  0  0  0  0
   10.3680   14.3330   20.2650 H   0  0  0  0  0  0  0  0  0  0  0  0
    8.7010   13.9800   22.0500 H   0  0  0  0  0  0  0  0  0  0  0  0
    9.4490   11.4200   23.1830 H   0  0  0  0  0  0  0  0  0  0  0  0
   10.2690   11.2500   24.7630 H   0  0  0  0  0  0  0  0  0  0  0  0
  1  2  1  0
  2  3  2  0
  3  4  1  0
  3  5  1  0
  5  6  1  0
  6  7  1  0
  7  8  2  0
  7  9  1  0
  9 10  2  0
 10 11  1  0
 11 12  2  0
 12 13  1  0
 13 14  2  0
  6 15  1  0
 15  2  1  0
 14  9  1  0
  1 16  1  0
  1 17  1  0
  1 18  1  0
  4 19  1  0
  4 20  1  0
  4 21  1  0
  5 22  1  0
  5 23  1  0
 10 24  1  0
 11 25  1  0
 12 26  1  0
 13 27  1  0
 14 28  1  0
 15 29  1  0
 15 30  1  0
A    1
 C1 
A    2
 C2 
A    3
 C3 
A    4
 C4 
A    5
 C5 
A    6
 N1 
A    7
 C6 
A    8
 O1 
A    9
 C7 
A   10
 C8 
A   11
 C9 
A   12
 C10
A   13
 C11
A   14
 C12
A   15
 C13
A   16
 H1 
A   17
 H2 
A   18
 H3 
A   19
 H4 
A   20
 H5 
A   21
 H6 
A   22
 H7 
A   23
 H8 
A   24
 H9 
A   25
 H10
A   26
 H11
A   27
 H12
A   28
 H13
A   29
 H14
A   30
 H15
M  END
>  <ref_pdb>  (148) 
x0554_0A

>  <ref_mols>  (148) 
x0451_0A,x0554_0A,x0556_0A,x0566_0A,x0310_0A,x0416_0A

>  <original SMILES>  (148) 
CC1=C(C)CN(C(=O)c2ccccc2)C1

>  <rationale>  (148) 
info cluster #11 (rank 8); hydroph_interaction:Y89; 

>  <cluster_rank>  (148) 
8

>  <N_interactions>  (148) 
1

>  <N_interactions_lost>  (148) 
0

>  <∆∆G>  (148) 
-8.857118

>  <comRMSD>  (148) 
0.632701

>  <N_rotatable_bonds>  (148) 
3

>  <N_unconstrained_atoms>  (148) 
0

>  <N_constrained_atoms>  (148) 
16

$$$$
Z2229683908
     RDKit          3D

 31 33  0  0  0  0  0  0  0  0999 V2000
   11.6280   15.5010   19.1070 C   0  0  0  0  0  0  0  0  0  0  0  0
   11.0730   15.0690   20.4550 C   0  0  0  0  0  0  0  0  0  0  0  0
    9.8630   15.7910   21.0000 C   0  0  0  0  0  0  0  0  0  0  0  0
    9.3950   15.1210   22.4780 S   0  0  0  0  0  0  0  0  0  0  0  0
   10.6720   13.9620   22.4320 C   0  0  0  0  0  0  0  0  0  0  0  0
   10.6990   13.0380   23.5450 C   0  0  0  0  0  0  0  0  0  0  0  0
   11.7230   12.6200   24.0430 O   0  0  0  0  0  0  0  0  0  0  0  0
    9.4170   12.7420   23.8900 N   0  0  0  0  0  0  0  0  0  0  0  0
    8.9260   11.5110   24.2470 C   0  0  0  0  0  0  0  0  0  0  0  0
    9.4150   10.3620   23.7020 C   0  0  0  0  0  0  0  0  0  0  0  0
    8.8690    9.1680   24.1480 C   0  0  0  0  0  0  0  0  0  0  0  0
    7.9000    9.1440   25.0630 C   0  0  0  0  0  0  0  0  0  0  0  0
    7.3750   10.2710   25.6090 C   0  0  0  0  0  0  0  0  0  0  0  0
    6.3640   10.2030   26.5340 C   0  0  0  0  0  0  0  0  0  0  0  0
    5.8500   11.3970   27.0850 C   0  0  0  0  0  0  0  0  0  0  0  0
    6.3200   12.5980   26.7360 N   0  0  0  0  0  0  0  0  0  0  0  0
    7.3140   12.6060   25.8170 C   0  0  0  0  0  0  0  0  0  0  0  0
    7.8860   11.4900   25.2120 C   0  0  0  0  0  0  0  0  0  0  0  0
   11.4930   14.0530   21.3280 C   0  0  0  0  0  0  0  0  0  0  0  0
   11.2850   14.8310   18.3110 H   0  0  0  0  0  0  0  0  0  0  0  0
   12.7150   15.4460   19.1020 H   0  0  0  0  0  0  0  0  0  0  0  0
   11.3190   16.5170   18.8590 H   0  0  0  0  0  0  0  0  0  0  0  0
    9.3520   16.6220   20.5120 H   0  0  0  0  0  0  0  0  0  0  0  0
    8.8470   13.5380   24.1230 H   0  0  0  0  0  0  0  0  0  0  0  0
   10.1920   10.3260   22.9580 H   0  0  0  0  0  0  0  0  0  0  0  0
    9.2330    8.2260   23.7500 H   0  0  0  0  0  0  0  0  0  0  0  0
    7.5440    8.2260   25.3630 H   0  0  0  0  0  0  0  0  0  0  0  0
    5.9620    9.2590   26.8400 H   0  0  0  0  0  0  0  0  0  0  0  0
    5.0560   11.4050   27.8160 H   0  0  0  0  0  0  0  0  0  0  0  0
    7.6400   13.6080   25.5840 H   0  0  0  0  0  0  0  0  0  0  0  0
   12.3440   13.4160   21.1380 H   0  0  0  0  0  0  0  0  0  0  0  0
  1  2  1  0
  2  3  2  0
  3  4  1  0
  4  5  1  0
  5  6  1  0
  6  7  2  0
  6  8  1  0
  8  9  1  0
  9 10  2  0
 10 11  1  0
 11 12  2  0
 12 13  1  0
 13 14  2  0
 14 15  1  0
 15 16  2  0
 16 17  1  0
 17 18  2  0
  5 19  2  0
 19  2  1  0
 18  9  1  0
 18 13  1  0
  1 20  1  0
  1 21  1  0
  1 22  1  0
  3 23  1  0
  8 24  1  0
 10 25  1  0
 11 26  1  0
 12 27  1  0
 14 28  1  0
 15 29  1  0
 17 30  1  0
 19 31  1  0
A    1
 C1 
A    2
 C2 
A    3
 C3 
A    4
 S1 
A    5
 C4 
A    6
 C5 
A    7
 O1 
A    8
 N1 
A    9
 C6 
A   10
 C7 
A   11
 C8 
A   12
 C9 
A   13
 C10
A   14
 C11
A   15
 C12
A   16
 N2 
A   17
 C13
A   18
 C14
A   19
 C15
A   20
 H1 
A   21
 H2 
A   22
 H3 
A   23
 H4 
A   24
 H5 
A   25
 H6 
A   26
 H7 
A   27
 H8 
A   28
 H9 
A   29
 H10
A   30
 H11
A   31
 H12
M  END
>  <ref_pdb>  (149) 
x0554_0A

>  <ref_mols>  (149) 
x0451_0A,x0554_0A,x0556_0A,x0566_0A,x0310_0A,x0416_0A

>  <original SMILES>  (149) 
Cc1csc(C(=O)Nc2cccc3ccncc23)c1

>  <rationale>  (149) 
info cluster #13 (rank 8); hydroph_interaction:Y90; 

>  <cluster_rank>  (149) 
8

>  <N_interactions>  (149) 
1

>  <N_interactions_lost>  (149) 
0

>  <∆∆G>  (149) 
-8.46388

>  <comRMSD>  (149) 
0.803896

>  <N_rotatable_bonds>  (149) 
3

>  <N_unconstrained_atoms>  (149) 
1

>  <N_constrained_atoms>  (149) 
18

$$$$
Z1311046485
     RDKit          3D

 30 32  0  0  0  0  0  0  0  0999 V2000
    6.7550   10.0600   26.5590 O   0  0  0  0  0  0  0  0  0  0  0  0
    6.8300   11.2140   26.1570 C   0  0  0  0  0  0  0  0  0  0  0  0
    7.7320   11.6260   25.2010 N   0  0  0  0  0  0  0  0  0  0  0  0
    8.5220   10.7350   24.4620 C   0  0  0  0  0  0  0  0  0  0  0  0
    8.1340    9.4130   24.4480 C   0  0  0  0  0  0  0  0  0  0  0  0
    8.8930    8.4910   23.7310 C   0  0  0  0  0  0  0  0  0  0  0  0
   10.0040    8.9770   23.0760 C   0  0  0  0  0  0  0  0  0  0  0  0
   10.4150   10.2790   23.0680 C   0  0  0  0  0  0  0  0  0  0  0  0
    9.6620   11.1790   23.7730 C   0  0  0  0  0  0  0  0  0  0  0  0
   10.2540   12.5450   23.6610 C   0  0  0  0  0  0  0  0  0  0  0  0
   10.1810   13.5040   24.5730 N   0  0  0  0  0  0  0  0  0  0  0  0
   10.8620   14.5830   24.0660 C   0  0  0  0  0  0  0  0  0  0  0  0
   11.3690   14.2910   22.8180 C   0  0  0  0  0  0  0  0  0  0  0  0
   10.9780   13.0070   22.5740 N   0  0  0  0  0  0  0  0  0  0  0  0
    5.9510   12.2330   26.6830 C   0  0  0  0  0  0  0  0  0  0  0  0
    5.5780   13.4800   26.2650 C   0  0  0  0  0  0  0  0  0  0  0  0
    4.6750   13.9930   27.2190 C   0  0  0  0  0  0  0  0  0  0  0  0
    4.5510   13.0120   28.1770 C   0  0  0  0  0  0  0  0  0  0  0  0
    5.3230   11.9400   27.8610 O   0  0  0  0  0  0  0  0  0  0  0  0
    8.1550   12.5460   25.3240 H   0  0  0  0  0  0  0  0  0  0  0  0
    7.2600    9.0750   24.9820 H   0  0  0  0  0  0  0  0  0  0  0  0
    8.6200    7.4390   23.6960 H   0  0  0  0  0  0  0  0  0  0  0  0
   10.5940    8.2710   22.5310 H   0  0  0  0  0  0  0  0  0  0  0  0
   11.3000   10.5550   22.5210 H   0  0  0  0  0  0  0  0  0  0  0  0
   10.9510   15.5070   24.6230 H   0  0  0  0  0  0  0  0  0  0  0  0
   11.9610   14.8740   22.0990 H   0  0  0  0  0  0  0  0  0  0  0  0
   11.1830   12.4700   21.7340 H   0  0  0  0  0  0  0  0  0  0  0  0
    5.9480   13.9330   25.3500 H   0  0  0  0  0  0  0  0  0  0  0  0
    4.1790   14.9540   27.2140 H   0  0  0  0  0  0  0  0  0  0  0  0
    3.9880   12.9260   29.0950 H   0  0  0  0  0  0  0  0  0  0  0  0
  1  2  2  0
  2  3  1  0
  3  4  1  0
  4  5  2  0
  5  6  1  0
  6  7  2  0
  7  8  1  0
  8  9  2  0
  9 10  1  0
 10 11  2  0
 11 12  1  0
 12 13  2  0
 13 14  1  0
  2 15  1  0
 15 16  2  0
 16 17  1  0
 17 18  2  0
 18 19  1  0
  9  4  1  0
 14 10  1  0
 19 15  1  0
  3 20  1  0
  5 21  1  0
  6 22  1  0
  7 23  1  0
  8 24  1  0
 12 25  1  0
 13 26  1  0
 14 27  1  0
 16 28  1  0
 17 29  1  0
 18 30  1  0
A    1
 O1 
A    2
 C1 
A    3
 N1 
A    4
 C2 
A    5
 C3 
A    6
 C4 
A    7
 C5 
A    8
 C6 
A    9
 C7 
A   10
 C8 
A   11
 N2 
A   12
 C9 
A   13
 C10
A   14
 N3 
A   15
 C11
A   16
 C12
A   17
 C13
A   18
 C14
A   19
 O2 
A   20
 H1 
A   21
 H2 
A   22
 H3 
A   23
 H4 
A   24
 H5 
A   25
 H6 
A   26
 H7 
A   27
 H8 
A   28
 H9 
A   29
 H10
A   30
 H11
M  END
>  <ref_pdb>  (150) 
x0554_0A

>  <ref_mols>  (150) 
x0451_0A,x0554_0A,x0556_0A,x0566_0A,x0310_0A,x0416_0A

>  <original SMILES>  (150) 
O=C(Nc1ccccc1-c1ncc[nH]1)c1ccco1

>  <rationale>  (150) 
info cluster #14 (rank 8); hydroph_interaction:D109+V124; 

>  <cluster_rank>  (150) 
8

>  <N_interactions>  (150) 
2

>  <N_interactions_lost>  (150) 
0

>  <∆∆G>  (150) 
-7.827237

>  <comRMSD>  (150) 
0.362851

>  <N_rotatable_bonds>  (150) 
3

>  <N_unconstrained_atoms>  (150) 
1

>  <N_constrained_atoms>  (150) 
18

$$$$
Z2475722454
     RDKit          3D

 31 33  0  0  0  0  0  0  0  0999 V2000
    9.5420   17.9970   18.1860 C   0  0  0  0  0  0  0  0  0  0  0  0
   10.0700   16.8630   18.9960 C   0  0  0  0  0  0  0  0  0  0  0  0
   10.0850   16.8510   20.3410 N   0  0  0  0  0  0  0  0  0  0  0  0
   10.6580   15.6510   20.6490 N   0  0  0  0  0  0  0  0  0  0  0  0
   11.1340   15.3950   21.8750 C   0  0  0  0  0  0  0  0  0  0  0  0
   11.1570   14.0460   22.4820 C   0  0  0  0  0  0  0  0  0  0  0  0
   12.2160   13.2730   22.7120 N   0  0  0  0  0  0  0  0  0  0  0  0
   11.7250   12.1350   23.2780 C   0  0  0  0  0  0  0  0  0  0  0  0
   10.2540   12.2640   23.3830 C   0  0  0  0  0  0  0  0  0  0  0  0
    9.3980   11.3040   23.9060 C   0  0  0  0  0  0  0  0  0  0  0  0
    9.4750    9.9240   23.6390 C   0  0  0  0  0  0  0  0  0  0  0  0
    8.5140    9.1830   24.2770 C   0  0  0  0  0  0  0  0  0  0  0  0
    7.6640    9.9470   25.0490 C   0  0  0  0  0  0  0  0  0  0  0  0
    8.0870   11.6090   24.9720 S   0  0  0  0  0  0  0  0  0  0  0  0
    9.9400   13.5000   22.8690 O   0  0  0  0  0  0  0  0  0  0  0  0
   11.2340   15.1360   19.4730 C   0  0  0  0  0  0  0  0  0  0  0  0
   12.1270   14.3290   19.3780 O   0  0  0  0  0  0  0  0  0  0  0  0
   10.5740   15.7620   18.4370 N   0  0  0  0  0  0  0  0  0  0  0  0
   10.2340   15.1610   17.1680 C   0  0  0  0  0  0  0  0  0  0  0  0
   10.3600   18.5890   17.7750 H   0  0  0  0  0  0  0  0  0  0  0  0
    8.9470   17.6370   17.3400 H   0  0  0  0  0  0  0  0  0  0  0  0
    8.9110   18.6500   18.7970 H   0  0  0  0  0  0  0  0  0  0  0  0
   12.0670   15.9460   21.8750 H   0  0  0  0  0  0  0  0  0  0  0  0
   10.4940   15.9850   22.5440 H   0  0  0  0  0  0  0  0  0  0  0  0
   12.3600   11.3210   23.5770 H   0  0  0  0  0  0  0  0  0  0  0  0
   10.2140    9.4560   22.9930 H   0  0  0  0  0  0  0  0  0  0  0  0
    8.4320    8.1030   24.1800 H   0  0  0  0  0  0  0  0  0  0  0  0
    6.8350    9.5540   25.6310 H   0  0  0  0  0  0  0  0  0  0  0  0
   11.0640   15.2470   16.4710 H   0  0  0  0  0  0  0  0  0  0  0  0
   10.0060   14.1130   17.3240 H   0  0  0  0  0  0  0  0  0  0  0  0
    9.3490   15.6500   16.7530 H   0  0  0  0  0  0  0  0  0  0  0  0
  1  2  1  0
  2  3  2  0
  3  4  1  0
  4  5  1  0
  5  6  1  0
  6  7  2  0
  7  8  1  0
  8  9  2  0
  9 10  1  0
 10 11  2  0
 11 12  1  0
 12 13  2  0
 13 14  1  0
  9 15  1  0
  4 16  1  0
 16 17  2  0
 16 18  1  0
 18 19  1  0
 18  2  1  0
 15  6  1  0
 14 10  1  0
  1 20  1  0
  1 21  1  0
  1 22  1  0
  5 23  1  0
  5 24  1  0
  8 25  1  0
 11 26  1  0
 12 27  1  0
 13 28  1  0
 19 29  1  0
 19 30  1  0
 19 31  1  0
A    1
 C1 
A    2
 C2 
A    3
 N1 
A    4
 N2 
A    5
 C3 
A    6
 C4 
A    7
 N3 
A    8
 C5 
A    9
 C6 
A   10
 C7 
A   11
 C8 
A   12
 C9 
A   13
 C10
A   14
 S1 
A   15
 O1 
A   16
 C11
A   17
 O2 
A   18
 N4 
A   19
 C12
A   20
 H1 
A   21
 H2 
A   22
 H3 
A   23
 H4 
A   24
 H5 
A   25
 H6 
A   26
 H7 
A   27
 H8 
A   28
 H9 
A   29
 H10
A   30
 H11
A   31
 H12
M  END
>  <ref_pdb>  (151) 
x0554_0A

>  <ref_mols>  (151) 
x0451_0A,x0554_0A,x0556_0A,x0566_0A,x0310_0A,x0416_0A

>  <original SMILES>  (151) 
Cc1nn(Cc2ncc(-c3cccs3)o2)c(=O)n1C

>  <rationale>  (151) 
info cluster #2 (rank 8); hbond:S87; hydroph_interaction:Y90+V84; 

>  <cluster_rank>  (151) 
8

>  <N_interactions>  (151) 
3

>  <N_interactions_lost>  (151) 
0

>  <∆∆G>  (151) 
-9.874747

>  <comRMSD>  (151) 
0.752296

>  <N_rotatable_bonds>  (151) 
5

>  <N_unconstrained_atoms>  (151) 
9

>  <N_constrained_atoms>  (151) 
11

$$$$
PV_002789702686
     RDKit          3D

 28 29  0  0  0  0  0  0  0  0999 V2000
    6.7570   14.6450   23.9450 O   0  0  0  0  0  0  0  0  0  0  0  0
    7.6750   13.8520   23.8800 C   0  0  0  0  0  0  0  0  0  0  0  0
    8.5180   13.6730   22.8240 N   0  0  0  0  0  0  0  0  0  0  0  0
    9.8880   13.8500   22.9310 C   0  0  0  0  0  0  0  0  0  0  0  0
   10.5270   13.8520   24.1570 C   0  0  0  0  0  0  0  0  0  0  0  0
   11.8690   14.0310   24.3110 C   0  0  0  0  0  0  0  0  0  0  0  0
   12.6240   14.2230   23.1680 C   0  0  0  0  0  0  0  0  0  0  0  0
   12.0300   14.2280   21.9070 C   0  0  0  0  0  0  0  0  0  0  0  0
   10.6580   14.0390   21.7850 C   0  0  0  0  0  0  0  0  0  0  0  0
    8.0810   12.9880   24.8680 N   0  0  0  0  0  0  0  0  0  0  0  0
    8.2120   11.6080   24.7540 C   0  0  0  0  0  0  0  0  0  0  0  0
    7.3570   10.7990   25.4480 C   0  0  0  0  0  0  0  0  0  0  0  0
    7.4710    9.4560   25.3520 C   0  0  0  0  0  0  0  0  0  0  0  0
    8.4990    8.8350   24.5070 C   0  0  0  0  0  0  0  0  0  0  0  0
    9.3540    9.6620   23.8080 C   0  0  0  0  0  0  0  0  0  0  0  0
    9.2170   11.0530   23.9270 C   0  0  0  0  0  0  0  0  0  0  0  0
    8.1070   13.6140   21.9060 H   0  0  0  0  0  0  0  0  0  0  0  0
    9.9300   13.7020   25.0650 H   0  0  0  0  0  0  0  0  0  0  0  0
   12.3230   14.0220   25.3010 H   0  0  0  0  0  0  0  0  0  0  0  0
   13.6730   14.3670   23.2800 H   0  0  0  0  0  0  0  0  0  0  0  0
   12.6320   14.3790   21.0190 H   0  0  0  0  0  0  0  0  0  0  0  0
   10.2160   14.0440   20.7970 H   0  0  0  0  0  0  0  0  0  0  0  0
    7.9720   13.3320   25.8060 H   0  0  0  0  0  0  0  0  0  0  0  0
    6.5800   11.2000   26.0830 H   0  0  0  0  0  0  0  0  0  0  0  0
    6.7790    8.8760   25.9170 H   0  0  0  0  0  0  0  0  0  0  0  0
    8.5880    7.7520   24.4330 H   0  0  0  0  0  0  0  0  0  0  0  0
   10.1270    9.2330   23.1720 H   0  0  0  0  0  0  0  0  0  0  0  0
    9.8970   11.6870   23.3700 H   0  0  0  0  0  0  0  0  0  0  0  0
  1  2  2  0
  2  3  1  0
  3  4  1  0
  4  5  2  0
  5  6  1  0
  6  7  2  0
  7  8  1  0
  8  9  2  0
  2 10  1  0
 10 11  1  0
 11 12  2  0
 12 13  1  0
 13 14  2  0
 14 15  1  0
 15 16  2  0
  9  4  1  0
 16 11  1  0
  3 17  1  0
  5 18  1  0
  6 19  1  0
  7 20  1  0
  8 21  1  0
  9 22  1  0
 10 23  1  0
 12 24  1  0
 13 25  1  0
 14 26  1  0
 15 27  1  0
 16 28  1  0
A    1
 O1 
A    2
 C1 
A    3
 N1 
A    4
 C2 
A    5
 C3 
A    6
 C4 
A    7
 C5 
A    8
 C6 
A    9
 C7 
A   10
 N2 
A   11
 C8 
A   12
 C9 
A   13
 C10
A   14
 C11
A   15
 C12
A   16
 C13
A   17
 H1 
A   18
 H2 
A   19
 H3 
A   20
 H4 
A   21
 H5 
A   22
 H6 
A   23
 H7 
A   24
 H8 
A   25
 H9 
A   26
 H10
A   27
 H11
A   28
 H12
M  END
>  <ref_pdb>  (152) 
x0554_0A

>  <ref_mols>  (152) 
x0451_0A,x0554_0A,x0556_0A,x0566_0A,x0310_0A,x0416_0A

>  <original SMILES>  (152) 
O=C(Nc1ccccc1)Nc1ccccc1

>  <rationale>  (152) 
info cluster #10 (rank 8); hbond:T126+G127; hydroph_interaction:Y89; 

>  <cluster_rank>  (152) 
8

>  <N_interactions>  (152) 
3

>  <N_interactions_lost>  (152) 
0

>  <∆∆G>  (152) 
-7.158366

>  <comRMSD>  (152) 
0.527554

>  <N_rotatable_bonds>  (152) 
2

>  <N_unconstrained_atoms>  (152) 
0

>  <N_constrained_atoms>  (152) 
16

$$$$
PV_002795335355
     RDKit          3D

 27 29  0  0  0  0  0  0  0  0999 V2000
    8.6520    9.7890   24.1230 C   0  0  0  0  0  0  0  0  0  0  0  0
    7.6850   10.4390   25.0280 C   0  0  0  0  0  0  0  0  0  0  0  0
    6.7840    9.8220   25.8270 C   0  0  0  0  0  0  0  0  0  0  0  0
    5.8870   10.6840   26.6790 C   0  0  0  0  0  0  0  0  0  0  0  0
    5.9880   12.1330   26.6460 N   0  0  0  0  0  0  0  0  0  0  0  0
    6.9720   12.7380   25.7660 C   0  0  0  0  0  0  0  0  0  0  0  0
    7.7340   11.8220   25.0320 C   0  0  0  0  0  0  0  0  0  0  0  0
    8.6170   12.4880   24.2370 C   0  0  0  0  0  0  0  0  0  0  0  0
    9.9770   12.3100   24.2550 C   0  0  0  0  0  0  0  0  0  0  0  0
   10.5290   13.1410   23.3180 C   0  0  0  0  0  0  0  0  0  0  0  0
   11.8280   13.3520   22.9510 C   0  0  0  0  0  0  0  0  0  0  0  0
   12.0500   14.2640   21.9470 C   0  0  0  0  0  0  0  0  0  0  0  0
   10.9700   14.9070   21.3800 C   0  0  0  0  0  0  0  0  0  0  0  0
    9.6650   14.7310   21.7260 N   0  0  0  0  0  0  0  0  0  0  0  0
    9.5210   13.8340   22.7050 C   0  0  0  0  0  0  0  0  0  0  0  0
    8.3440   13.4340   23.2820 N   0  0  0  0  0  0  0  0  0  0  0  0
    9.5560    9.4910   24.6680 H   0  0  0  0  0  0  0  0  0  0  0  0
    8.2200    8.8910   23.6760 H   0  0  0  0  0  0  0  0  0  0  0  0
    8.9520   10.4630   23.3160 H   0  0  0  0  0  0  0  0  0  0  0  0
    6.5910    8.8170   25.9630 H   0  0  0  0  0  0  0  0  0  0  0  0
    5.1480   10.2080   27.3350 H   0  0  0  0  0  0  0  0  0  0  0  0
    7.0570   13.8220   25.7290 H   0  0  0  0  0  0  0  0  0  0  0  0
   10.5150   11.6290   24.9020 H   0  0  0  0  0  0  0  0  0  0  0  0
   12.6530   12.8340   23.4250 H   0  0  0  0  0  0  0  0  0  0  0  0
   13.0410   14.4870   21.6020 H   0  0  0  0  0  0  0  0  0  0  0  0
   11.1300   15.6300   20.5840 H   0  0  0  0  0  0  0  0  0  0  0  0
    7.4280   13.7850   23.0300 H   0  0  0  0  0  0  0  0  0  0  0  0
  1  2  1  0
  2  3  2  0
  3  4  1  0
  4  5  2  0
  5  6  1  0
  6  7  2  0
  7  8  1  0
  8  9  2  0
  9 10  1  0
 10 11  2  0
 11 12  1  0
 12 13  2  0
 13 14  1  0
 14 15  2  0
 15 16  1  0
  7  2  1  0
 16  8  1  0
 15 10  1  0
  1 17  1  0
  1 18  1  0
  1 19  1  0
  3 20  1  0
  4 21  1  0
  6 22  1  0
  9 23  1  0
 11 24  1  0
 12 25  1  0
 13 26  1  0
 16 27  1  0
A    1
 C1 
A    2
 C2 
A    3
 C3 
A    4
 C4 
A    5
 N1 
A    6
 C5 
A    7
 C6 
A    8
 C7 
A    9
 C8 
A   10
 C9 
A   11
 C10
A   12
 C11
A   13
 C12
A   14
 N2 
A   15
 C13
A   16
 N3 
A   17
 H1 
A   18
 H2 
A   19
 H3 
A   20
 H4 
A   21
 H5 
A   22
 H6 
A   23
 H7 
A   24
 H8 
A   25
 H9 
A   26
 H10
A   27
 H11
M  END
>  <ref_pdb>  (153) 
x0554_0A

>  <ref_mols>  (153) 
x0451_0A,x0554_0A,x0556_0A,x0566_0A,x0310_0A,x0416_0A

>  <original SMILES>  (153) 
Cc1ccncc1-c1cc2cccnc2[nH]1

>  <rationale>  (153) 
info cluster #1 (rank 8); hbond:G127; 

>  <cluster_rank>  (153) 
8

>  <N_interactions>  (153) 
1

>  <N_interactions_lost>  (153) 
0

>  <∆∆G>  (153) 
-6.907821

>  <comRMSD>  (153) 
0.986248

>  <N_rotatable_bonds>  (153) 
2

>  <N_unconstrained_atoms>  (153) 
0

>  <N_constrained_atoms>  (153) 
16

$$$$
Z2285406399
     RDKit          3D

 32 34  0  0  0  0  0  0  0  0999 V2000
   12.4050   15.6560   21.2980 C   0  0  0  0  0  0  0  0  0  0  0  0
   12.2470   14.2220   21.6430 C   0  0  0  0  0  0  0  0  0  0  0  0
   11.0340   13.8910   22.0900 C   0  0  0  0  0  0  0  0  0  0  0  0
    9.9780   14.5080   21.5880 N   0  0  0  0  0  0  0  0  0  0  0  0
    8.9860   13.9190   22.3080 O   0  0  0  0  0  0  0  0  0  0  0  0
    9.5650   13.0190   23.1620 C   0  0  0  0  0  0  0  0  0  0  0  0
    8.7760   12.3350   23.9980 C   0  0  0  0  0  0  0  0  0  0  0  0
    8.6740   10.8650   24.2680 C   0  0  0  0  0  0  0  0  0  0  0  0
    9.4600    9.8740   23.6690 C   0  0  0  0  0  0  0  0  0  0  0  0
    8.9410    8.4860   23.5900 C   0  0  0  0  0  0  0  0  0  0  0  0
    7.6250   10.8270   25.2260 C   0  0  0  0  0  0  0  0  0  0  0  0
    6.8990    9.7940   25.9850 C   0  0  0  0  0  0  0  0  0  0  0  0
    5.7940   10.1440   26.9580 C   0  0  0  0  0  0  0  0  0  0  0  0
    5.4940   11.6240   27.1010 C   0  0  0  0  0  0  0  0  0  0  0  0
    6.2160   12.5670   26.3540 C   0  0  0  0  0  0  0  0  0  0  0  0
    7.2130   12.1410   25.4760 C   0  0  0  0  0  0  0  0  0  0  0  0
    7.9010   13.0130   24.7490 O   0  0  0  0  0  0  0  0  0  0  0  0
   10.8410   12.9530   23.0560 N   0  0  0  0  0  0  0  0  0  0  0  0
   11.8240   16.2820   21.9800 H   0  0  0  0  0  0  0  0  0  0  0  0
   13.4490   15.9580   21.3600 H   0  0  0  0  0  0  0  0  0  0  0  0
   12.0920   15.8420   20.2690 H   0  0  0  0  0  0  0  0  0  0  0  0
   12.4800   13.6250   20.7590 H   0  0  0  0  0  0  0  0  0  0  0  0
   12.9680   13.9610   22.4180 H   0  0  0  0  0  0  0  0  0  0  0  0
   10.4080    9.8210   24.2130 H   0  0  0  0  0  0  0  0  0  0  0  0
    9.6960   10.1790   22.6490 H   0  0  0  0  0  0  0  0  0  0  0  0
    8.0680    8.4200   22.9470 H   0  0  0  0  0  0  0  0  0  0  0  0
    9.7100    7.8300   23.1740 H   0  0  0  0  0  0  0  0  0  0  0  0
    8.6630    8.1040   24.5780 H   0  0  0  0  0  0  0  0  0  0  0  0
    7.1860    8.7720   25.8190 H   0  0  0  0  0  0  0  0  0  0  0  0
    5.2490    9.3980   27.5210 H   0  0  0  0  0  0  0  0  0  0  0  0
    4.7140   11.9560   27.7830 H   0  0  0  0  0  0  0  0  0  0  0  0
    6.0020   13.6260   26.4520 H   0  0  0  0  0  0  0  0  0  0  0  0
  1  2  1  0
  2  3  1  0
  3  4  2  0
  4  5  1  0
  5  6  1  0
  6  7  1  0
  7  8  2  0
  8  9  1  0
  9 10  1  0
  8 11  1  0
 11 12  2  0
 12 13  1  0
 13 14  2  0
 14 15  1  0
 15 16  2  0
 16 17  1  0
  6 18  2  0
 18  3  1  0
 17  7  1  0
 16 11  1  0
  1 19  1  0
  1 20  1  0
  1 21  1  0
  2 22  1  0
  2 23  1  0
  9 24  1  0
  9 25  1  0
 10 26  1  0
 10 27  1  0
 10 28  1  0
 12 29  1  0
 13 30  1  0
 14 31  1  0
 15 32  1  0
A    1
 C1 
A    2
 C2 
A    3
 C3 
A    4
 N1 
A    5
 O1 
A    6
 C4 
A    7
 C5 
A    8
 C6 
A    9
 C7 
A   10
 C8 
A   11
 C9 
A   12
 C10
A   13
 C11
A   14
 C12
A   15
 C13
A   16
 C14
A   17
 O2 
A   18
 N2 
A   19
 H1 
A   20
 H2 
A   21
 H3 
A   22
 H4 
A   23
 H5 
A   24
 H6 
A   25
 H7 
A   26
 H8 
A   27
 H9 
A   28
 H10
A   29
 H11
A   30
 H12
A   31
 H13
A   32
 H14
M  END
>  <ref_pdb>  (154) 
x0554_0A

>  <ref_mols>  (154) 
x0451_0A,x0554_0A,x0556_0A,x0566_0A,x0310_0A,x0416_0A

>  <original SMILES>  (154) 
CCc1noc(-c2oc3ccccc3c2CC)n1

>  <rationale>  (154) 
info cluster #0 (rank 8); hydroph_interaction:Y89+D109+Y90; 

>  <cluster_rank>  (154) 
8

>  <N_interactions>  (154) 
3

>  <N_interactions_lost>  (154) 
0

>  <∆∆G>  (154) 
-9.852628

>  <comRMSD>  (154) 
0.845612

>  <N_rotatable_bonds>  (154) 
5

>  <N_unconstrained_atoms>  (154) 
1

>  <N_constrained_atoms>  (154) 
17

$$$$
Z44301014
     RDKit          3D

 28 30  0  0  0  0  0  0  0  0999 V2000
   12.5030   12.4480   24.8060 O   0  0  0  0  0  0  0  0  0  0  0  0
   11.4740   12.7870   24.2040 C   0  0  0  0  0  0  0  0  0  0  0  0
   10.1090   12.4840   24.5860 C   0  0  0  0  0  0  0  0  0  0  0  0
    9.7550   11.2650   25.1660 C   0  0  0  0  0  0  0  0  0  0  0  0
    8.4750   11.1010   25.5240 C   0  0  0  0  0  0  0  0  0  0  0  0
    7.8730   12.1580   26.4400 C   0  0  0  0  0  0  0  0  0  0  0  0
    6.4630   11.9210   26.8160 C   0  0  0  0  0  0  0  0  0  0  0  0
    5.8380   10.7260   26.2640 C   0  0  0  0  0  0  0  0  0  0  0  0
    6.4760    9.8660   25.4510 C   0  0  0  0  0  0  0  0  0  0  0  0
    7.7900   10.0320   25.0730 C   0  0  0  0  0  0  0  0  0  0  0  0
    8.8710    8.7310   23.8100 I   0  0  0  0  0  0  0  0  0  0  0  0
    9.2240   13.5040   24.2870 C   0  0  0  0  0  0  0  0  0  0  0  0
    8.2190   13.9120   24.8360 O   0  0  0  0  0  0  0  0  0  0  0  0
    9.8920   13.9590   23.0680 C   0  0  0  0  0  0  0  0  0  0  0  0
    9.3330   14.7330   22.0080 C   0  0  0  0  0  0  0  0  0  0  0  0
   10.0950   15.0850   20.9000 C   0  0  0  0  0  0  0  0  0  0  0  0
   11.4180   14.6270   20.9260 C   0  0  0  0  0  0  0  0  0  0  0  0
   11.9510   13.8790   21.9570 C   0  0  0  0  0  0  0  0  0  0  0  0
   11.1920   13.5500   23.0140 C   0  0  0  0  0  0  0  0  0  0  0  0
   10.4770   10.4770   25.3380 H   0  0  0  0  0  0  0  0  0  0  0  0
    8.4290   13.0170   26.7980 H   0  0  0  0  0  0  0  0  0  0  0  0
    5.9140   12.6050   27.4740 H   0  0  0  0  0  0  0  0  0  0  0  0
    4.8010   10.5170   26.5180 H   0  0  0  0  0  0  0  0  0  0  0  0
    5.8300    9.1340   25.2000 H   0  0  0  0  0  0  0  0  0  0  0  0
    8.2950   15.0470   22.0700 H   0  0  0  0  0  0  0  0  0  0  0  0
    9.5800   15.6720   20.1480 H   0  0  0  0  0  0  0  0  0  0  0  0
   12.1070   14.8400   20.1190 H   0  0  0  0  0  0  0  0  0  0  0  0
   12.9550   13.5500   21.9320 H   0  0  0  0  0  0  0  0  0  0  0  0
  1  2  2  0
  2  3  1  0
  3  4  2  3
  4  5  1  0
  5  6  2  0
  6  7  1  0
  7  8  2  0
  8  9  1  0
  9 10  2  0
 10 11  1  0
  3 12  1  0
 12 13  2  0
 12 14  1  0
 14 15  2  0
 15 16  1  0
 16 17  2  0
 17 18  1  0
 18 19  2  0
 19  2  1  0
 10  5  1  0
 19 14  1  0
  4 20  1  0
  6 21  1  0
  7 22  1  0
  8 23  1  0
  9 24  1  0
 15 25  1  0
 16 26  1  0
 17 27  1  0
 18 28  1  0
A    1
 O1 
A    2
 C1 
A    3
 C2 
A    4
 C3 
A    5
 C4 
A    6
 C5 
A    7
 C6 
A    8
 C7 
A    9
 C8 
A   10
 C9 
A   11
 I1 
A   12
 C10
A   13
 O2 
A   14
 C11
A   15
 C12
A   16
 C13
A   17
 C14
A   18
 C15
A   19
 C16
A   20
 H1 
A   21
 H2 
A   22
 H3 
A   23
 H4 
A   24
 H5 
A   25
 H6 
A   26
 H7 
A   27
 H8 
A   28
 H9 
M  END
>  <ref_pdb>  (155) 
x0554_0A

>  <ref_mols>  (155) 
x0451_0A,x0554_0A,x0556_0A,x0566_0A,x0310_0A,x0416_0A

>  <original SMILES>  (155) 
O=C1C(=Cc2ccccc2I)C(=O)c2ccccc21

>  <rationale>  (155) 
info cluster #18 (rank 8); hydroph_interaction:P107; 

>  <cluster_rank>  (155) 
8

>  <N_interactions>  (155) 
1

>  <N_interactions_lost>  (155) 
0

>  <∆∆G>  (155) 
-6.04539

>  <comRMSD>  (155) 
0.778295

>  <N_rotatable_bonds>  (155) 
1

>  <N_unconstrained_atoms>  (155) 
1

>  <N_constrained_atoms>  (155) 
18

$$$$
Z1518042917
     RDKit          3D

 29 30  0  0  0  0  0  0  0  0999 V2000
    6.2540    9.9980   25.9200 C   0  0  0  0  0  0  0  0  0  0  0  0
    7.5560   10.4750   25.4030 C   0  0  0  0  0  0  0  0  0  0  0  0
    8.5080    9.6620   24.7760 C   0  0  0  0  0  0  0  0  0  0  0  0
    9.7160   10.2070   24.3280 C   0  0  0  0  0  0  0  0  0  0  0  0
    9.8160   11.6020   24.7900 N   0  0  0  0  0  0  0  0  0  0  0  0
   10.9580   12.3910   24.6650 C   0  0  0  0  0  0  0  0  0  0  0  0
   11.9970   12.2280   25.3020 O   0  0  0  0  0  0  0  0  0  0  0  0
   10.8850   13.4700   23.6750 C   0  0  0  0  0  0  0  0  0  0  0  0
   10.6790   13.1980   22.4260 C   0  0  0  0  0  0  0  0  0  0  0  0
   10.5650   14.1230   21.2730 C   0  0  0  0  0  0  0  0  0  0  0  0
   10.7230   15.4830   21.7370 C   0  0  0  0  0  0  0  0  0  0  0  0
   10.9380   15.8090   23.0290 N   0  0  0  0  0  0  0  0  0  0  0  0
   11.0160   14.8140   23.9690 C   0  0  0  0  0  0  0  0  0  0  0  0
    8.5880   12.3530   24.6000 C   0  0  0  0  0  0  0  0  0  0  0  0
    7.7760   11.9310   25.6120 C   0  0  0  0  0  0  0  0  0  0  0  0
    6.4010    9.3640   26.7860 H   0  0  0  0  0  0  0  0  0  0  0  0
    5.7160    9.4680   25.1650 H   0  0  0  0  0  0  0  0  0  0  0  0
    5.6270   10.8440   26.2140 H   0  0  0  0  0  0  0  0  0  0  0  0
    8.3230    8.6000   24.6330 H   0  0  0  0  0  0  0  0  0  0  0  0
   10.6220    9.6700   24.6010 H   0  0  0  0  0  0  0  0  0  0  0  0
    9.6860   10.2420   23.2320 H   0  0  0  0  0  0  0  0  0  0  0  0
   10.5860   12.1320   22.2760 H   0  0  0  0  0  0  0  0  0  0  0  0
   10.3930   13.8340   20.2420 H   0  0  0  0  0  0  0  0  0  0  0  0
   10.6750   16.3180   21.0470 H   0  0  0  0  0  0  0  0  0  0  0  0
   11.1910   15.1580   24.9860 H   0  0  0  0  0  0  0  0  0  0  0  0
    8.2960   12.2190   23.5660 H   0  0  0  0  0  0  0  0  0  0  0  0
    8.9120   13.3830   24.6130 H   0  0  0  0  0  0  0  0  0  0  0  0
    6.8000   12.3650   25.7900 H   0  0  0  0  0  0  0  0  0  0  0  0
    8.3350   12.0700   26.5420 H   0  0  0  0  0  0  0  0  0  0  0  0
  1  2  1  0
  2  3  2  0
  3  4  1  0
  4  5  1  0
  5  6  1  0
  6  7  2  0
  6  8  1  0
  8  9  2  0
  9 10  1  0
 10 11  2  0
 11 12  1  0
 12 13  2  0
  5 14  1  0
 14 15  1  0
 15  2  1  0
 13  8  1  0
  1 16  1  0
  1 17  1  0
  1 18  1  0
  3 19  1  0
  4 20  1  0
  4 21  1  0
  9 22  1  0
 10 23  1  0
 11 24  1  0
 13 25  1  0
 14 26  1  0
 14 27  1  0
 15 28  1  0
 15 29  1  0
A    1
 C1 
A    2
 C2 
A    3
 C3 
A    4
 C4 
A    5
 N1 
A    6
 C5 
A    7
 O1 
A    8
 C6 
A    9
 C7 
A   10
 C8 
A   11
 C9 
A   12
 N2 
A   13
 C10
A   14
 C11
A   15
 C12
A   16
 H1 
A   17
 H2 
A   18
 H3 
A   19
 H4 
A   20
 H5 
A   21
 H6 
A   22
 H7 
A   23
 H8 
A   24
 H9 
A   25
 H10
A   26
 H11
A   27
 H12
A   28
 H13
A   29
 H14
M  END
>  <ref_pdb>  (156) 
x0554_0A

>  <ref_mols>  (156) 
x0451_0A,x0554_0A,x0556_0A,x0566_0A,x0310_0A,x0416_0A

>  <original SMILES>  (156) 
CC1=CCN(C(=O)c2cccnc2)CC1

>  <rationale>  (156) 
info cluster #9 (rank 8); hbond:S87+G108; pistack:H21; 

>  <cluster_rank>  (156) 
8

>  <N_interactions>  (156) 
3

>  <N_interactions_lost>  (156) 
0

>  <∆∆G>  (156) 
-7.021247

>  <comRMSD>  (156) 
0.665268

>  <N_rotatable_bonds>  (156) 
2

>  <N_unconstrained_atoms>  (156) 
0

>  <N_constrained_atoms>  (156) 
16

$$$$
Z2216891523
     RDKit          3D

 28 30  0  0  0  0  0  0  0  0999 V2000
    5.9570   11.3210   26.5350 C   0  0  0  0  0  0  0  0  0  0  0  0
    6.8350   12.5470   26.3350 C   0  0  0  0  0  0  0  0  0  0  0  0
    8.0730   12.2480   25.5000 C   0  0  0  0  0  0  0  0  0  0  0  0
    8.2920   10.9650   25.0170 C   0  0  0  0  0  0  0  0  0  0  0  0
    9.4320   10.6600   24.2380 C   0  0  0  0  0  0  0  0  0  0  0  0
    9.9670    9.3790   24.1380 C   0  0  0  0  0  0  0  0  0  0  0  0
   11.0160    9.5010   23.3280 N   0  0  0  0  0  0  0  0  0  0  0  0
   11.2020   10.7430   22.8930 N   0  0  0  0  0  0  0  0  0  0  0  0
   10.2440   11.4830   23.4240 C   0  0  0  0  0  0  0  0  0  0  0  0
   10.1690   12.8460   23.1130 C   0  0  0  0  0  0  0  0  0  0  0  0
    8.9210   13.4590   22.9930 C   0  0  0  0  0  0  0  0  0  0  0  0
    8.8560   14.8000   22.6400 C   0  0  0  0  0  0  0  0  0  0  0  0
   10.0270   15.4970   22.4170 C   0  0  0  0  0  0  0  0  0  0  0  0
   11.2380   14.8190   22.5660 C   0  0  0  0  0  0  0  0  0  0  0  0
   11.3270   13.5190   22.9110 N   0  0  0  0  0  0  0  0  0  0  0  0
    7.4280    9.9190   25.2610 C   0  0  0  0  0  0  0  0  0  0  0  0
    6.2740   10.0880   26.0090 C   0  0  0  0  0  0  0  0  0  0  0  0
    5.0570   11.5020   27.1330 H   0  0  0  0  0  0  0  0  0  0  0  0
    6.6060   13.5290   26.7410 H   0  0  0  0  0  0  0  0  0  0  0  0
    8.7700   13.0550   25.2960 H   0  0  0  0  0  0  0  0  0  0  0  0
    9.6800    8.4360   24.5710 H   0  0  0  0  0  0  0  0  0  0  0  0
   11.6590    8.7830   23.0170 H   0  0  0  0  0  0  0  0  0  0  0  0
    8.0090   12.8970   23.1620 H   0  0  0  0  0  0  0  0  0  0  0  0
    7.8910   15.2920   22.5380 H   0  0  0  0  0  0  0  0  0  0  0  0
   10.0120   16.5380   22.1350 H   0  0  0  0  0  0  0  0  0  0  0  0
   12.1890   15.3210   22.4070 H   0  0  0  0  0  0  0  0  0  0  0  0
    7.6640    8.9450   24.8580 H   0  0  0  0  0  0  0  0  0  0  0  0
    5.6160    9.2530   26.1850 H   0  0  0  0  0  0  0  0  0  0  0  0
  1  2  2  0
  2  3  1  0
  3  4  2  0
  4  5  1  0
  5  6  2  0
  6  7  1  0
  7  8  1  0
  8  9  2  0
  9 10  1  0
 10 11  2  0
 11 12  1  0
 12 13  2  0
 13 14  1  0
 14 15  2  0
  4 16  1  0
 16 17  2  0
 17  1  1  0
  9  5  1  0
 15 10  1  0
  1 18  1  0
  2 19  1  0
  3 20  1  0
  6 21  1  0
  7 22  1  0
 11 23  1  0
 12 24  1  0
 13 25  1  0
 14 26  1  0
 16 27  1  0
 17 28  1  0
A    1
 C1 
A    2
 C2 
A    3
 C3 
A    4
 C4 
A    5
 C5 
A    6
 C6 
A    7
 N1 
A    8
 N2 
A    9
 C7 
A   10
 C8 
A   11
 C9 
A   12
 C10
A   13
 C11
A   14
 C12
A   15
 N3 
A   16
 C13
A   17
 C14
A   18
 H1 
A   19
 H2 
A   20
 H3 
A   21
 H4 
A   22
 H5 
A   23
 H6 
A   24
 H7 
A   25
 H8 
A   26
 H9 
A   27
 H10
A   28
 H11
M  END
>  <ref_pdb>  (157) 
x0554_0A

>  <ref_mols>  (157) 
x0451_0A,x0554_0A,x0556_0A,x0566_0A,x0310_0A,x0416_0A

>  <original SMILES>  (157) 
c1ccc(-c2c[nH]nc2-c2ccccn2)cc1

>  <rationale>  (157) 
info cluster #6 (rank 8); hbond:C110; 

>  <cluster_rank>  (157) 
8

>  <N_interactions>  (157) 
1

>  <N_interactions_lost>  (157) 
0

>  <∆∆G>  (157) 
-6.027968

>  <comRMSD>  (157) 
0.478971

>  <N_rotatable_bonds>  (157) 
2

>  <N_unconstrained_atoms>  (157) 
0

>  <N_constrained_atoms>  (157) 
17

$$$$
PV_003485748373
     RDKit          3D

 31 33  0  0  0  0  0  0  0  0999 V2000
    8.6110    7.4900   23.5340 C   0  0  0  0  0  0  0  0  0  0  0  0
    8.7170    8.9710   23.8070 C   0  0  0  0  0  0  0  0  0  0  0  0
    7.7580    9.6280   24.7730 C   0  0  0  0  0  0  0  0  0  0  0  0
    7.8770   10.9860   24.9820 C   0  0  0  0  0  0  0  0  0  0  0  0
    7.0160   11.6720   25.8450 C   0  0  0  0  0  0  0  0  0  0  0  0
    7.1660   13.0510   26.0330 C   0  0  0  0  0  0  0  0  0  0  0  0
    8.2340   13.7140   25.3130 C   0  0  0  0  0  0  0  0  0  0  0  0
    9.0750   13.0460   24.4720 C   0  0  0  0  0  0  0  0  0  0  0  0
   10.0670   13.7320   23.8250 C   0  0  0  0  0  0  0  0  0  0  0  0
   11.3890   13.1960   23.8090 C   0  0  0  0  0  0  0  0  0  0  0  0
   12.3880   13.8680   23.1610 C   0  0  0  0  0  0  0  0  0  0  0  0
   12.1340   15.0650   22.5150 C   0  0  0  0  0  0  0  0  0  0  0  0
   10.8450   15.6060   22.5270 C   0  0  0  0  0  0  0  0  0  0  0  0
    9.8310   14.9230   23.1900 C   0  0  0  0  0  0  0  0  0  0  0  0
    8.5880   15.4770   23.1850 O   0  0  0  0  0  0  0  0  0  0  0  0
    8.8910   11.6700   24.2990 C   0  0  0  0  0  0  0  0  0  0  0  0
    9.6860   10.9610   23.4640 C   0  0  0  0  0  0  0  0  0  0  0  0
    9.6420    9.6540   23.1890 N   0  0  0  0  0  0  0  0  0  0  0  0
    8.4440    6.9210   24.4460 H   0  0  0  0  0  0  0  0  0  0  0  0
    7.8230    7.2600   22.8100 H   0  0  0  0  0  0  0  0  0  0  0  0
    9.5450    7.1470   23.0960 H   0  0  0  0  0  0  0  0  0  0  0  0
    6.9850    9.0970   25.3060 H   0  0  0  0  0  0  0  0  0  0  0  0
    6.2320   11.1170   26.3620 H   0  0  0  0  0  0  0  0  0  0  0  0
    6.5110   13.6120   26.6970 H   0  0  0  0  0  0  0  0  0  0  0  0
    8.3390   14.7820   25.4740 H   0  0  0  0  0  0  0  0  0  0  0  0
   11.6070   12.2550   24.3090 H   0  0  0  0  0  0  0  0  0  0  0  0
   13.3780   13.4430   23.1660 H   0  0  0  0  0  0  0  0  0  0  0  0
   12.9400   15.5830   22.0020 H   0  0  0  0  0  0  0  0  0  0  0  0
   10.7000   16.5490   22.0070 H   0  0  0  0  0  0  0  0  0  0  0  0
    8.3850   15.8180   24.0720 H   0  0  0  0  0  0  0  0  0  0  0  0
   10.4540   11.4910   22.9370 H   0  0  0  0  0  0  0  0  0  0  0  0
  1  2  1  0
  2  3  2  0
  3  4  1  0
  4  5  2  0
  5  6  1  0
  6  7  2  0
  7  8  1  0
  8  9  1  0
  9 10  2  0
 10 11  1  0
 11 12  2  0
 12 13  1  0
 13 14  2  0
 14 15  1  0
  8 16  2  0
 16 17  1  0
 17 18  2  0
 18  2  1  0
 16  4  1  0
 14  9  1  0
  1 19  1  0
  1 20  1  0
  1 21  1  0
  3 22  1  0
  5 23  1  0
  6 24  1  0
  7 25  1  0
 10 26  1  0
 11 27  1  0
 12 28  1  0
 13 29  1  0
 15 30  1  0
 17 31  1  0
A    1
 C1 
A    2
 C2 
A    3
 C3 
A    4
 C4 
A    5
 C5 
A    6
 C6 
A    7
 C7 
A    8
 C8 
A    9
 C9 
A   10
 C10
A   11
 C11
A   12
 C12
A   13
 C13
A   14
 C14
A   15
 O1 
A   16
 C15
A   17
 C16
A   18
 N1 
A   19
 H1 
A   20
 H2 
A   21
 H3 
A   22
 H4 
A   23
 H5 
A   24
 H6 
A   25
 H7 
A   26
 H8 
A   27
 H9 
A   28
 H10
A   29
 H11
A   30
 H12
A   31
 H13
M  END
>  <ref_pdb>  (158) 
x0554_0A

>  <ref_mols>  (158) 
x0451_0A,x0554_0A,x0556_0A,x0566_0A,x0310_0A,x0416_0A

>  <original SMILES>  (158) 
Cc1cc2cccc(-c3ccccc3O)c2cn1

>  <rationale>  (158) 
info cluster #19 (rank 8); hbond:S87; hydroph_interaction:Y89+D109+V124; 

>  <cluster_rank>  (158) 
8

>  <N_interactions>  (158) 
5

>  <N_interactions_lost>  (158) 
0

>  <∆∆G>  (158) 
-7.045691

>  <comRMSD>  (158) 
0.747404

>  <N_rotatable_bonds>  (158) 
3

>  <N_unconstrained_atoms>  (158) 
0

>  <N_constrained_atoms>  (158) 
18

$$$$
Z1316732207
     RDKit          3D

 27 29  0  0  0  0  0  0  0  0999 V2000
   10.6590   12.7000   25.6360 O   0  0  0  0  0  0  0  0  0  0  0  0
   10.8840   12.5210   24.4440 C   0  0  0  0  0  0  0  0  0  0  0  0
   10.8950   11.1660   23.8680 C   0  0  0  0  0  0  0  0  0  0  0  0
    9.5810   10.6370   23.6820 N   0  0  0  0  0  0  0  0  0  0  0  0
    9.5540    9.3760   23.2000 C   0  0  0  0  0  0  0  0  0  0  0  0
   10.1070    8.9570   22.2140 O   0  0  0  0  0  0  0  0  0  0  0  0
    8.5990    8.4050   24.2540 S   0  0  0  0  0  0  0  0  0  0  0  0
    7.8280    9.7920   24.9200 C   0  0  0  0  0  0  0  0  0  0  0  0
    6.7090    9.8860   25.7510 C   0  0  0  0  0  0  0  0  0  0  0  0
    6.2290   11.1040   26.2000 C   0  0  0  0  0  0  0  0  0  0  0  0
    6.9150   12.2460   25.7850 C   0  0  0  0  0  0  0  0  0  0  0  0
    8.0310   12.1660   24.9520 C   0  0  0  0  0  0  0  0  0  0  0  0
    8.4890   10.9280   24.5170 C   0  0  0  0  0  0  0  0  0  0  0  0
   11.1640   13.5800   23.5130 C   0  0  0  0  0  0  0  0  0  0  0  0
   11.8950   13.5850   22.3360 C   0  0  0  0  0  0  0  0  0  0  0  0
   11.9870   14.7250   21.6670 C   0  0  0  0  0  0  0  0  0  0  0  0
   11.3130   15.7110   22.3060 C   0  0  0  0  0  0  0  0  0  0  0  0
   10.5320   15.1360   23.8310 S   0  0  0  0  0  0  0  0  0  0  0  0
   11.4100   11.2180   22.9010 H   0  0  0  0  0  0  0  0  0  0  0  0
   11.4860   10.4740   24.4810 H   0  0  0  0  0  0  0  0  0  0  0  0
    6.1890    9.0080   26.0640 H   0  0  0  0  0  0  0  0  0  0  0  0
    5.3690   11.2280   26.8450 H   0  0  0  0  0  0  0  0  0  0  0  0
    6.5710   13.2210   26.1160 H   0  0  0  0  0  0  0  0  0  0  0  0
    8.5230   13.0860   24.6580 H   0  0  0  0  0  0  0  0  0  0  0  0
   12.3800   12.6830   21.9750 H   0  0  0  0  0  0  0  0  0  0  0  0
   12.5320   14.8490   20.7330 H   0  0  0  0  0  0  0  0  0  0  0  0
   11.2700   16.7220   21.9170 H   0  0  0  0  0  0  0  0  0  0  0  0
  1  2  2  0
  2  3  1  0
  3  4  1  0
  4  5  1  0
  5  6  2  0
  5  7  1  0
  7  8  1  0
  8  9  2  0
  9 10  1  0
 10 11  2  0
 11 12  1  0
 12 13  2  0
  2 14  1  0
 14 15  2  0
 15 16  1  0
 16 17  2  0
 17 18  1  0
 13  4  1  0
 13  8  1  0
 18 14  1  0
  3 19  1  0
  3 20  1  0
  9 21  1  0
 10 22  1  0
 11 23  1  0
 12 24  1  0
 15 25  1  0
 16 26  1  0
 17 27  1  0
A    1
 O1 
A    2
 C1 
A    3
 C2 
A    4
 N1 
A    5
 C3 
A    6
 O2 
A    7
 S1 
A    8
 C4 
A    9
 C5 
A   10
 C6 
A   11
 C7 
A   12
 C8 
A   13
 C9 
A   14
 C10
A   15
 C11
A   16
 C12
A   17
 C13
A   18
 S2 
A   19
 H1 
A   20
 H2 
A   21
 H3 
A   22
 H4 
A   23
 H5 
A   24
 H6 
A   25
 H7 
A   26
 H8 
A   27
 H9 
M  END
>  <ref_pdb>  (159) 
x0554_0A

>  <ref_mols>  (159) 
x0451_0A,x0554_0A,x0556_0A,x0566_0A,x0310_0A,x0416_0A

>  <original SMILES>  (159) 
O=C(Cn1c(=O)sc2ccccc21)c1cccs1

>  <rationale>  (159) 
info cluster #7 (rank 8); pistack:Y89; 

>  <cluster_rank>  (159) 
8

>  <N_interactions>  (159) 
1

>  <N_interactions_lost>  (159) 
0

>  <∆∆G>  (159) 
-7.063019

>  <comRMSD>  (159) 
0.712061

>  <N_rotatable_bonds>  (159) 
3

>  <N_unconstrained_atoms>  (159) 
1

>  <N_constrained_atoms>  (159) 
17

$$$$
Z50129970
     RDKit          3D

 25 27  0  0  0  0  0  0  0  0999 V2000
   10.1650   13.8690   24.4870 Br  0  0  0  0  0  0  0  0  0  0  0  0
    9.9620   12.0780   23.9300 C   0  0  0  0  0  0  0  0  0  0  0  0
   10.9280   11.4070   23.0200 C   0  0  0  0  0  0  0  0  0  0  0  0
   10.7120   10.0710   22.6380 C   0  0  0  0  0  0  0  0  0  0  0  0
    9.6430    9.3770   23.0910 C   0  0  0  0  0  0  0  0  0  0  0  0
    8.7640    9.9910   23.9280 C   0  0  0  0  0  0  0  0  0  0  0  0
    8.8770   11.2940   24.3580 C   0  0  0  0  0  0  0  0  0  0  0  0
    7.8670   11.6590   25.1920 C   0  0  0  0  0  0  0  0  0  0  0  0
    7.5540   12.8590   25.6270 N   0  0  0  0  0  0  0  0  0  0  0  0
    6.4640   12.6320   26.4390 C   0  0  0  0  0  0  0  0  0  0  0  0
    5.6850   13.5140   27.1860 C   0  0  0  0  0  0  0  0  0  0  0  0
    4.6230   13.0320   27.9420 C   0  0  0  0  0  0  0  0  0  0  0  0
    4.3360   11.6560   27.9540 C   0  0  0  0  0  0  0  0  0  0  0  0
    5.1070   10.7490   27.2040 C   0  0  0  0  0  0  0  0  0  0  0  0
    6.1420   11.2770   26.4740 C   0  0  0  0  0  0  0  0  0  0  0  0
    7.0510   10.6990   25.6620 N   0  0  0  0  0  0  0  0  0  0  0  0
   11.7980   11.9430   22.6430 H   0  0  0  0  0  0  0  0  0  0  0  0
   11.3770    9.5570   21.9750 H   0  0  0  0  0  0  0  0  0  0  0  0
    9.4870    8.3440   22.7920 H   0  0  0  0  0  0  0  0  0  0  0  0
    7.9390    9.4090   24.2650 H   0  0  0  0  0  0  0  0  0  0  0  0
    5.9170   14.5750   27.1700 H   0  0  0  0  0  0  0  0  0  0  0  0
    4.0120   13.7090   28.5260 H   0  0  0  0  0  0  0  0  0  0  0  0
    3.5070   11.2780   28.5450 H   0  0  0  0  0  0  0  0  0  0  0  0
    4.8770    9.6900   27.2170 H   0  0  0  0  0  0  0  0  0  0  0  0
    7.0950    9.7000   25.4500 H   0  0  0  0  0  0  0  0  0  0  0  0
  1  2  1  0
  2  3  2  0
  3  4  1  0
  4  5  2  0
  5  6  1  0
  6  7  2  0
  7  8  1  0
  8  9  2  0
  9 10  1  0
 10 11  2  0
 11 12  1  0
 12 13  2  0
 13 14  1  0
 14 15  2  0
 15 16  1  0
  7  2  1  0
 16  8  1  0
 15 10  1  0
  3 17  1  0
  4 18  1  0
  5 19  1  0
  6 20  1  0
 11 21  1  0
 12 22  1  0
 13 23  1  0
 14 24  1  0
 16 25  1  0
A    1
BR1 
A    2
 C1 
A    3
 C2 
A    4
 C3 
A    5
 C4 
A    6
 C5 
A    7
 C6 
A    8
 C7 
A    9
 N1 
A   10
 C8 
A   11
 C9 
A   12
 C10
A   13
 C11
A   14
 C12
A   15
 C13
A   16
 N2 
A   17
 H1 
A   18
 H2 
A   19
 H3 
A   20
 H4 
A   21
 H5 
A   22
 H6 
A   23
 H7 
A   24
 H8 
A   25
 H9 
M  END
>  <ref_pdb>  (160) 
x0554_0A

>  <ref_mols>  (160) 
x0451_0A,x0554_0A,x0556_0A,x0566_0A,x0310_0A,x0416_0A

>  <original SMILES>  (160) 
Brc1ccccc1-c1nc2ccccc2[nH]1

>  <rationale>  (160) 
info cluster #15 (rank 8); hbond:S105; 

>  <cluster_rank>  (160) 
8

>  <N_interactions>  (160) 
1

>  <N_interactions_lost>  (160) 
0

>  <∆∆G>  (160) 
-4.715291

>  <comRMSD>  (160) 
0.567035

>  <N_rotatable_bonds>  (160) 
1

>  <N_unconstrained_atoms>  (160) 
0

>  <N_constrained_atoms>  (160) 
16

$$$$
Z2063872025
     RDKit          3D

 26 27  0  0  0  0  0  0  0  0999 V2000
   11.8530   14.6090   22.2970 C   0  0  0  0  0  0  0  0  0  0  0  0
   10.8590   13.5850   22.7430 C   0  0  0  0  0  0  0  0  0  0  0  0
   11.1490   12.2530   22.9280 C   0  0  0  0  0  0  0  0  0  0  0  0
   10.0810   11.4760   23.3320 C   0  0  0  0  0  0  0  0  0  0  0  0
   10.1490   10.1130   23.5610 C   0  0  0  0  0  0  0  0  0  0  0  0
   10.4560    9.3100   22.6880 O   0  0  0  0  0  0  0  0  0  0  0  0
    9.8100    9.8250   24.9160 N   0  0  0  0  0  0  0  0  0  0  0  0
    8.6740   10.4840   25.3750 C   0  0  0  0  0  0  0  0  0  0  0  0
    7.5410    9.7480   25.2410 C   0  0  0  0  0  0  0  0  0  0  0  0
    6.3350   10.2500   25.6590 C   0  0  0  0  0  0  0  0  0  0  0  0
    6.2590   11.6100   26.2570 C   0  0  0  0  0  0  0  0  0  0  0  0
    7.4280   12.3390   26.3780 C   0  0  0  0  0  0  0  0  0  0  0  0
    8.6300   11.7700   25.9360 C   0  0  0  0  0  0  0  0  0  0  0  0
    8.9370   12.2560   23.4710 C   0  0  0  0  0  0  0  0  0  0  0  0
    9.2210   13.9060   23.0840 S   0  0  0  0  0  0  0  0  0  0  0  0
   12.7970   14.4710   22.8340 H   0  0  0  0  0  0  0  0  0  0  0  0
   12.0360   14.5110   21.2220 H   0  0  0  0  0  0  0  0  0  0  0  0
   11.4930   15.6240   22.4940 H   0  0  0  0  0  0  0  0  0  0  0  0
   12.1410   11.8480   22.7600 H   0  0  0  0  0  0  0  0  0  0  0  0
    9.9090    8.8630   25.2200 H   0  0  0  0  0  0  0  0  0  0  0  0
    7.6280    8.7780   24.8120 H   0  0  0  0  0  0  0  0  0  0  0  0
    5.3800    9.7220   25.5920 H   0  0  0  0  0  0  0  0  0  0  0  0
    5.2610   11.9410   26.5650 H   0  0  0  0  0  0  0  0  0  0  0  0
    7.4220   13.3350   26.8090 H   0  0  0  0  0  0  0  0  0  0  0  0
    9.5290   12.3680   26.0480 H   0  0  0  0  0  0  0  0  0  0  0  0
    7.9400   11.9620   23.7710 H   0  0  0  0  0  0  0  0  0  0  0  0
  1  2  1  0
  2  3  2  0
  3  4  1  0
  4  5  1  0
  5  6  2  0
  5  7  1  0
  7  8  1  0
  8  9  2  0
  9 10  1  0
 10 11  2  0
 11 12  1  0
 12 13  2  0
  4 14  2  0
 14 15  1  0
 15  2  1  0
 13  8  1  0
  1 16  1  0
  1 17  1  0
  1 18  1  0
  3 19  1  0
  7 20  1  0
  9 21  1  0
 10 22  1  0
 11 23  1  0
 12 24  1  0
 13 25  1  0
 14 26  1  0
A    1
 C1 
A    2
 C2 
A    3
 C3 
A    4
 C4 
A    5
 C5 
A    6
 O1 
A    7
 N1 
A    8
 C6 
A    9
 C7 
A   10
 C8 
A   11
 C9 
A   12
 C10
A   13
 C11
A   14
 C12
A   15
 S1 
A   16
 H1 
A   17
 H2 
A   18
 H3 
A   19
 H4 
A   20
 H5 
A   21
 H6 
A   22
 H7 
A   23
 H8 
A   24
 H9 
A   25
 H10
A   26
 H11
M  END
>  <ref_pdb>  (161) 
x0554_0A

>  <ref_mols>  (161) 
x0451_0A,x0554_0A,x0556_0A,x0566_0A,x0310_0A,x0416_0A

>  <original SMILES>  (161) 
Cc1cc(C(=O)Nc2ccccc2)cs1

>  <rationale>  (161) 
info cluster #16 (rank 8); hbond:E106; hydroph_interaction:Y89+P107; 

>  <cluster_rank>  (161) 
8

>  <N_interactions>  (161) 
3

>  <N_interactions_lost>  (161) 
0

>  <∆∆G>  (161) 
-6.80624

>  <comRMSD>  (161) 
0.67216

>  <N_rotatable_bonds>  (161) 
3

>  <N_unconstrained_atoms>  (161) 
0

>  <N_constrained_atoms>  (161) 
16

$$$$
PV_006709439231
     RDKit          3D

 27 28  0  0  0  0  0  0  0  0999 V2000
   10.4530    9.9970   22.9690 C   0  0  0  0  0  0  0  0  0  0  0  0
    9.4470   10.4070   23.8060 C   0  0  0  0  0  0  0  0  0  0  0  0
    8.6980    9.5530   24.5730 C   0  0  0  0  0  0  0  0  0  0  0  0
    7.7010    9.9300   25.4100 N   0  0  0  0  0  0  0  0  0  0  0  0
    7.4150   11.2420   25.5070 C   0  0  0  0  0  0  0  0  0  0  0  0
    6.3110   11.7310   26.4280 C   0  0  0  0  0  0  0  0  0  0  0  0
    5.3790   10.7880   26.7620 N   0  0  0  0  0  0  0  0  0  0  0  0
    6.2560   12.8790   26.8500 O   0  0  0  0  0  0  0  0  0  0  0  0
    8.1120   12.1870   24.7750 C   0  0  0  0  0  0  0  0  0  0  0  0
    9.1220   11.7780   23.9310 C   0  0  0  0  0  0  0  0  0  0  0  0
    9.7880   12.9530   23.2020 C   0  0  0  0  0  0  0  0  0  0  0  0
   11.2290   13.0870   23.5370 C   0  0  0  0  0  0  0  0  0  0  0  0
   11.9700   14.0910   22.9290 C   0  0  0  0  0  0  0  0  0  0  0  0
   11.2950   14.9090   22.0280 C   0  0  0  0  0  0  0  0  0  0  0  0
    9.9310   14.7220   21.7700 C   0  0  0  0  0  0  0  0  0  0  0  0
    9.1510   13.7760   22.3350 N   0  0  0  0  0  0  0  0  0  0  0  0
   11.2070    9.3030   23.3160 H   0  0  0  0  0  0  0  0  0  0  0  0
   10.0190    9.5210   22.0870 H   0  0  0  0  0  0  0  0  0  0  0  0
   10.9860   10.8820   22.6180 H   0  0  0  0  0  0  0  0  0  0  0  0
    8.8600    8.4820   24.5590 H   0  0  0  0  0  0  0  0  0  0  0  0
    5.3720    9.9130   26.2610 H   0  0  0  0  0  0  0  0  0  0  0  0
    4.8860   10.8790   27.6430 H   0  0  0  0  0  0  0  0  0  0  0  0
    7.9270   13.2650   24.8080 H   0  0  0  0  0  0  0  0  0  0  0  0
   11.5840   12.3470   24.2610 H   0  0  0  0  0  0  0  0  0  0  0  0
   13.0190   14.2140   23.1480 H   0  0  0  0  0  0  0  0  0  0  0  0
   11.8100   15.7100   21.5070 H   0  0  0  0  0  0  0  0  0  0  0  0
    9.4380   15.3830   21.0600 H   0  0  0  0  0  0  0  0  0  0  0  0
  1  2  1  0
  2  3  2  0
  3  4  1  0
  4  5  2  0
  5  6  1  0
  6  7  1  0
  6  8  2  0
  5  9  1  0
  9 10  2  0
 10 11  1  0
 11 12  2  0
 12 13  1  0
 13 14  2  0
 14 15  1  0
 15 16  2  0
 10  2  1  0
 16 11  1  0
  1 17  1  0
  1 18  1  0
  1 19  1  0
  3 20  1  0
  7 21  1  0
  7 22  1  0
  9 23  1  0
 12 24  1  0
 13 25  1  0
 14 26  1  0
 15 27  1  0
A    1
 C1 
A    2
 C2 
A    3
 C3 
A    4
 N1 
A    5
 C4 
A    6
 C5 
A    7
 N2 
A    8
 O1 
A    9
 C6 
A   10
 C7 
A   11
 C8 
A   12
 C9 
A   13
 C10
A   14
 C11
A   15
 C12
A   16
 N3 
A   17
 H1 
A   18
 H2 
A   19
 H3 
A   20
 H4 
A   21
 H5 
A   22
 H6 
A   23
 H7 
A   24
 H8 
A   25
 H9 
A   26
 H10
A   27
 H11
M  END
>  <ref_pdb>  (162) 
x0554_0A

>  <ref_mols>  (162) 
x0451_0A,x0554_0A,x0556_0A,x0566_0A,x0310_0A,x0416_0A

>  <original SMILES>  (162) 
Cc1cnc(C(N)=O)cc1-c1ccccn1

>  <rationale>  (162) 
info cluster #4 (rank 8); hbond:S105; hydroph_interaction:Y89; 

>  <cluster_rank>  (162) 
8

>  <N_interactions>  (162) 
2

>  <N_interactions_lost>  (162) 
0

>  <∆∆G>  (162) 
-6.163558

>  <comRMSD>  (162) 
0.60615

>  <N_rotatable_bonds>  (162) 
3

>  <N_unconstrained_atoms>  (162) 
0

>  <N_constrained_atoms>  (162) 
16

$$$$
PV_006452992693
     RDKit          3D

 26 27  0  0  0  0  0  0  0  0999 V2000
    5.3450   10.7980   26.8400 N   0  0  0  0  0  0  0  0  0  0  0  0
    6.3030   11.6790   26.4350 C   0  0  0  0  0  0  0  0  0  0  0  0
    6.3590   12.8490   26.7910 O   0  0  0  0  0  0  0  0  0  0  0  0
    7.3920   11.2470   25.4980 C   0  0  0  0  0  0  0  0  0  0  0  0
    7.6300    9.8830   25.2940 C   0  0  0  0  0  0  0  0  0  0  0  0
    8.6370    9.4620   24.4320 C   0  0  0  0  0  0  0  0  0  0  0  0
    9.4410   10.4740   23.7470 C   0  0  0  0  0  0  0  0  0  0  0  0
   10.4750   10.1970   22.8720 N   0  0  0  0  0  0  0  0  0  0  0  0
    9.1930   11.8520   23.9560 C   0  0  0  0  0  0  0  0  0  0  0  0
    9.9160   12.8740   23.3290 C   0  0  0  0  0  0  0  0  0  0  0  0
   11.2640   13.0520   23.5230 C   0  0  0  0  0  0  0  0  0  0  0  0
   11.9450   14.0830   22.8630 C   0  0  0  0  0  0  0  0  0  0  0  0
   11.2730   14.9110   22.0260 N   0  0  0  0  0  0  0  0  0  0  0  0
    9.9470   14.7500   21.8300 N   0  0  0  0  0  0  0  0  0  0  0  0
    9.3020   13.7640   22.4710 C   0  0  0  0  0  0  0  0  0  0  0  0
    8.1600   12.2130   24.8400 C   0  0  0  0  0  0  0  0  0  0  0  0
    5.3330    9.9110   26.3480 H   0  0  0  0  0  0  0  0  0  0  0  0
    4.4880   11.0990   27.2770 H   0  0  0  0  0  0  0  0  0  0  0  0
    7.0140    9.1610   25.8210 H   0  0  0  0  0  0  0  0  0  0  0  0
    8.8250    8.4020   24.2720 H   0  0  0  0  0  0  0  0  0  0  0  0
   10.6450   10.8780   22.1230 H   0  0  0  0  0  0  0  0  0  0  0  0
   10.4560    9.2460   22.5090 H   0  0  0  0  0  0  0  0  0  0  0  0
   11.8070   12.3880   24.1890 H   0  0  0  0  0  0  0  0  0  0  0  0
   13.0050   14.2590   22.9840 H   0  0  0  0  0  0  0  0  0  0  0  0
    8.2420   13.7080   22.2650 H   0  0  0  0  0  0  0  0  0  0  0  0
    7.9470   13.2560   25.0180 H   0  0  0  0  0  0  0  0  0  0  0  0
  1  2  1  0
  2  3  2  0
  2  4  1  0
  4  5  2  0
  5  6  1  0
  6  7  2  0
  7  8  1  0
  7  9  1  0
  9 10  1  0
 10 11  2  0
 11 12  1  0
 12 13  2  0
 13 14  1  0
 14 15  2  0
  9 16  2  0
 16  4  1  0
 15 10  1  0
  1 17  1  0
  1 18  1  0
  5 19  1  0
  6 20  1  0
  8 21  1  0
  8 22  1  0
 11 23  1  0
 12 24  1  0
 15 25  1  0
 16 26  1  0
A    1
 N1 
A    2
 C1 
A    3
 O1 
A    4
 C2 
A    5
 C3 
A    6
 C4 
A    7
 C5 
A    8
 N2 
A    9
 C6 
A   10
 C7 
A   11
 C8 
A   12
 C9 
A   13
 N3 
A   14
 N4 
A   15
 C10
A   16
 C11
A   17
 H1 
A   18
 H2 
A   19
 H3 
A   20
 H4 
A   21
 H5 
A   22
 H6 
A   23
 H7 
A   24
 H8 
A   25
 H9 
A   26
 H10
M  END
>  <ref_pdb>  (163) 
x0554_0A

>  <ref_mols>  (163) 
x0451_0A,x0554_0A,x0556_0A,x0566_0A,x0310_0A,x0416_0A

>  <original SMILES>  (163) 
NC(=O)c1ccc(N)c(-c2ccnnc2)c1

>  <rationale>  (163) 
info cluster #8 (rank 8); hbond:S125+S87+C110+S105; 

>  <cluster_rank>  (163) 
8

>  <N_interactions>  (163) 
4

>  <N_interactions_lost>  (163) 
0

>  <∆∆G>  (163) 
-5.333463

>  <comRMSD>  (163) 
0.600858

>  <N_rotatable_bonds>  (163) 
3

>  <N_unconstrained_atoms>  (163) 
0

>  <N_constrained_atoms>  (163) 
16

$$$$
Z2855354265
     RDKit          3D

 30 32  0  0  0  0  0  0  0  0999 V2000
    5.0150   10.6750   27.9270 C   0  0  0  0  0  0  0  0  0  0  0  0
    5.5730   11.6280   26.9290 C   0  0  0  0  0  0  0  0  0  0  0  0
    4.8820   12.7980   26.6170 C   0  0  0  0  0  0  0  0  0  0  0  0
    5.4210   13.6680   25.6920 C   0  0  0  0  0  0  0  0  0  0  0  0
    6.5850   13.4570   25.0670 N   0  0  0  0  0  0  0  0  0  0  0  0
    7.2530   12.3070   25.3760 C   0  0  0  0  0  0  0  0  0  0  0  0
    8.5280   12.1730   24.6380 C   0  0  0  0  0  0  0  0  0  0  0  0
    9.0760   10.9540   24.0830 C   0  0  0  0  0  0  0  0  0  0  0  0
   10.2620   10.8390   23.4000 C   0  0  0  0  0  0  0  0  0  0  0  0
   10.9780   12.0970   23.2610 C   0  0  0  0  0  0  0  0  0  0  0  0
   12.1490   12.2930   22.6540 N   0  0  0  0  0  0  0  0  0  0  0  0
   12.0960   13.7460   22.4460 C   0  0  0  0  0  0  0  0  0  0  0  0
   11.2740   14.3590   23.5570 C   0  0  0  0  0  0  0  0  0  0  0  0
   10.4580   13.2850   23.7900 C   0  0  0  0  0  0  0  0  0  0  0  0
    9.2690   13.3320   24.4600 C   0  0  0  0  0  0  0  0  0  0  0  0
    6.7760   11.3830   26.2920 C   0  0  0  0  0  0  0  0  0  0  0  0
    5.2600   11.0070   28.9400 H   0  0  0  0  0  0  0  0  0  0  0  0
    3.9260   10.6080   27.8290 H   0  0  0  0  0  0  0  0  0  0  0  0
    5.4190    9.6710   27.7750 H   0  0  0  0  0  0  0  0  0  0  0  0
    3.9330   13.0310   27.0890 H   0  0  0  0  0  0  0  0  0  0  0  0
    4.9060   14.5890   25.4310 H   0  0  0  0  0  0  0  0  0  0  0  0
    8.5080   10.0340   24.2080 H   0  0  0  0  0  0  0  0  0  0  0  0
   10.6660    9.9190   22.9880 H   0  0  0  0  0  0  0  0  0  0  0  0
   12.0690   11.8330   21.7500 H   0  0  0  0  0  0  0  0  0  0  0  0
   11.6890   13.9870   21.4570 H   0  0  0  0  0  0  0  0  0  0  0  0
   13.0940   14.1550   22.5060 H   0  0  0  0  0  0  0  0  0  0  0  0
   10.8050   15.2490   23.1500 H   0  0  0  0  0  0  0  0  0  0  0  0
   11.8060   14.7020   24.4350 H   0  0  0  0  0  0  0  0  0  0  0  0
    8.9060   14.2810   24.8550 H   0  0  0  0  0  0  0  0  0  0  0  0
    7.3360   10.4790   26.5100 H   0  0  0  0  0  0  0  0  0  0  0  0
  1  2  1  0
  2  3  2  0
  3  4  1  0
  4  5  2  0
  5  6  1  0
  6  7  1  0
  7  8  2  0
  8  9  1  0
  9 10  2  0
 10 11  1  0
 11 12  1  0
 12 13  1  0
 13 14  1  0
 14 15  2  0
  6 16  2  0
 16  2  1  0
 15  7  1  0
 14 10  1  0
  1 17  1  0
  1 18  1  0
  1 19  1  0
  3 20  1  0
  4 21  1  0
  8 22  1  0
  9 23  1  0
 11 24  1  0
 12 25  1  0
 12 26  1  0
 13 27  1  0
 13 28  1  0
 15 29  1  0
 16 30  1  0
A    1
 C1 
A    2
 C2 
A    3
 C3 
A    4
 C4 
A    5
 N1 
A    6
 C5 
A    7
 C6 
A    8
 C7 
A    9
 C8 
A   10
 C9 
A   11
 N2 
A   12
 C10
A   13
 C11
A   14
 C12
A   15
 C13
A   16
 C14
A   17
 H1 
A   18
 H2 
A   19
 H3 
A   20
 H4 
A   21
 H5 
A   22
 H6 
A   23
 H7 
A   24
 H8 
A   25
 H9 
A   26
 H10
A   27
 H11
A   28
 H12
A   29
 H13
A   30
 H14
M  END
>  <ref_pdb>  (164) 
x0554_0A

>  <ref_mols>  (164) 
x0451_0A,x0554_0A,x0556_0A,x0566_0A,x0310_0A,x0416_0A

>  <original SMILES>  (164) 
Cc1ccnc(-c2ccc3c(c2)CCN3)c1

>  <rationale>  (164) 
info cluster #5 (rank 8); hbond:H21; hydroph_interaction:Y89; 

>  <cluster_rank>  (164) 
8

>  <N_interactions>  (164) 
2

>  <N_interactions_lost>  (164) 
0

>  <∆∆G>  (164) 
-4.360537

>  <comRMSD>  (164) 
0.445763

>  <N_rotatable_bonds>  (164) 
2

>  <N_unconstrained_atoms>  (164) 
0

>  <N_constrained_atoms>  (164) 
17

$$$$
Z57261030
     RDKit          3D

 25 26  0  0  0  0  0  0  0  0999 V2000
    4.6390    9.8370   27.2350 C   0  0  0  0  0  0  0  0  0  0  0  0
    5.8740   10.5200   26.6880 C   0  0  0  0  0  0  0  0  0  0  0  0
    6.1570   11.8030   27.0510 C   0  0  0  0  0  0  0  0  0  0  0  0
    7.3770   12.4350   26.5010 C   0  0  0  0  0  0  0  0  0  0  0  0
    8.2330   11.7750   25.6430 C   0  0  0  0  0  0  0  0  0  0  0  0
    7.7710   10.4670   25.3860 C   0  0  0  0  0  0  0  0  0  0  0  0
    8.5060    9.6420   24.5360 N   0  0  0  0  0  0  0  0  0  0  0  0
    9.3270   10.0740   23.5450 C   0  0  0  0  0  0  0  0  0  0  0  0
    9.9510    9.3240   22.8070 O   0  0  0  0  0  0  0  0  0  0  0  0
    9.3670   11.5390   23.4290 C   0  0  0  0  0  0  0  0  0  0  0  0
   10.3890   12.4460   23.6700 C   0  0  0  0  0  0  0  0  0  0  0  0
    9.9330   13.7030   23.3990 C   0  0  0  0  0  0  0  0  0  0  0  0
    8.6210   13.6110   22.9900 C   0  0  0  0  0  0  0  0  0  0  0  0
    8.2510   12.2850   22.9990 O   0  0  0  0  0  0  0  0  0  0  0  0
    6.6780    9.8600   25.8530 N   0  0  0  0  0  0  0  0  0  0  0  0
    4.8290    9.4350   28.2380 H   0  0  0  0  0  0  0  0  0  0  0  0
    4.3010    9.0160   26.5980 H   0  0  0  0  0  0  0  0  0  0  0  0
    3.8100   10.5460   27.3260 H   0  0  0  0  0  0  0  0  0  0  0  0
    5.5020   12.3440   27.7260 H   0  0  0  0  0  0  0  0  0  0  0  0
    7.6040   13.4570   26.7880 H   0  0  0  0  0  0  0  0  0  0  0  0
    9.1310   12.2040   25.2280 H   0  0  0  0  0  0  0  0  0  0  0  0
    8.0000    8.7970   24.3180 H   0  0  0  0  0  0  0  0  0  0  0  0
   11.3800   12.1850   24.0140 H   0  0  0  0  0  0  0  0  0  0  0  0
   10.4980   14.6240   23.4890 H   0  0  0  0  0  0  0  0  0  0  0  0
    7.8850   14.3430   22.6850 H   0  0  0  0  0  0  0  0  0  0  0  0
  1  2  1  0
  2  3  2  0
  3  4  1  0
  4  5  2  0
  5  6  1  0
  6  7  1  0
  7  8  1  0
  8  9  2  0
  8 10  1  0
 10 11  2  0
 11 12  1  0
 12 13  2  0
 13 14  1  0
  6 15  2  0
 15  2  1  0
 14 10  1  0
  1 16  1  0
  1 17  1  0
  1 18  1  0
  3 19  1  0
  4 20  1  0
  5 21  1  0
  7 22  1  0
 11 23  1  0
 12 24  1  0
 13 25  1  0
A    1
 C1 
A    2
 C2 
A    3
 C3 
A    4
 C4 
A    5
 C5 
A    6
 C6 
A    7
 N1 
A    8
 C7 
A    9
 O1 
A   10
 C8 
A   11
 C9 
A   12
 C10
A   13
 C11
A   14
 O2 
A   15
 N2 
A   16
 H1 
A   17
 H2 
A   18
 H3 
A   19
 H4 
A   20
 H5 
A   21
 H6 
A   22
 H7 
A   23
 H8 
A   24
 H9 
A   25
 H10
M  END
>  <ref_pdb>  (165) 
x0554_0A

>  <ref_mols>  (165) 
x0451_0A,x0554_0A,x0556_0A,x0566_0A,x0310_0A,x0416_0A

>  <original SMILES>  (165) 
Cc1cccc(NC(=O)c2ccco2)n1

>  <rationale>  (165) 
info cluster #20 (rank 8); hbond:C110+S105; hydroph_interaction:P107; 

>  <cluster_rank>  (165) 
8

>  <N_interactions>  (165) 
3

>  <N_interactions_lost>  (165) 
0

>  <∆∆G>  (165) 
-5.396924

>  <comRMSD>  (165) 
0.580117

>  <N_rotatable_bonds>  (165) 
3

>  <N_unconstrained_atoms>  (165) 
0

>  <N_constrained_atoms>  (165) 
16

$$$$
PV_002533575613
     RDKit          3D

 29 31  0  0  0  0  0  0  0  0999 V2000
    6.9970   13.2710   24.1400 O   0  0  0  0  0  0  0  0  0  0  0  0
    7.3610   12.1910   24.6010 C   0  0  0  0  0  0  0  0  0  0  0  0
    6.7410   11.4340   25.5650 N   0  0  0  0  0  0  0  0  0  0  0  0
    5.9850   11.9670   26.5940 C   0  0  0  0  0  0  0  0  0  0  0  0
    5.5640   11.2690   27.7130 C   0  0  0  0  0  0  0  0  0  0  0  0
    4.8340   11.8350   28.6990 N   0  0  0  0  0  0  0  0  0  0  0  0
    4.5310   13.2030   28.4860 C   0  0  0  0  0  0  0  0  0  0  0  0
    4.9650   13.8520   27.3600 C   0  0  0  0  0  0  0  0  0  0  0  0
    5.6920   13.2610   26.4030 N   0  0  0  0  0  0  0  0  0  0  0  0
    8.5650   11.5740   24.1260 C   0  0  0  0  0  0  0  0  0  0  0  0
    8.5680   10.1430   24.0770 C   0  0  0  0  0  0  0  0  0  0  0  0
    9.6790    9.4830   23.6400 C   0  0  0  0  0  0  0  0  0  0  0  0
   10.7720   10.2290   23.2660 C   0  0  0  0  0  0  0  0  0  0  0  0
   10.7920   11.6580   23.3090 C   0  0  0  0  0  0  0  0  0  0  0  0
   11.9080   12.4300   22.9290 C   0  0  0  0  0  0  0  0  0  0  0  0
   11.8580   13.8140   22.9920 C   0  0  0  0  0  0  0  0  0  0  0  0
   10.7260   14.4810   23.4230 N   0  0  0  0  0  0  0  0  0  0  0  0
    9.6570   13.7360   23.7890 C   0  0  0  0  0  0  0  0  0  0  0  0
    9.6430   12.3420   23.7510 C   0  0  0  0  0  0  0  0  0  0  0  0
    7.1990   10.5670   25.7970 H   0  0  0  0  0  0  0  0  0  0  0  0
    5.8020   10.2200   27.8620 H   0  0  0  0  0  0  0  0  0  0  0  0
    3.9440   13.7140   29.2440 H   0  0  0  0  0  0  0  0  0  0  0  0
    4.7260   14.9020   27.2060 H   0  0  0  0  0  0  0  0  0  0  0  0
    7.7050    9.6020   24.3800 H   0  0  0  0  0  0  0  0  0  0  0  0
    9.7150    8.3940   23.5870 H   0  0  0  0  0  0  0  0  0  0  0  0
   11.5960    9.6600   22.9460 H   0  0  0  0  0  0  0  0  0  0  0  0
   12.8210   11.9690   22.5810 H   0  0  0  0  0  0  0  0  0  0  0  0
   12.7050   14.4330   22.7050 H   0  0  0  0  0  0  0  0  0  0  0  0
    8.8030   14.3200   24.1180 H   0  0  0  0  0  0  0  0  0  0  0  0
  1  2  2  0
  2  3  1  0
  3  4  1  0
  4  5  2  0
  5  6  1  0
  6  7  2  0
  7  8  1  0
  8  9  2  0
  2 10  1  0
 10 11  2  0
 11 12  1  0
 12 13  2  0
 13 14  1  0
 14 15  2  0
 15 16  1  0
 16 17  2  0
 17 18  1  0
 18 19  2  0
  9  4  1  0
 19 10  1  0
 19 14  1  0
  3 20  1  0
  5 21  1  0
  7 22  1  0
  8 23  1  0
 11 24  1  0
 12 25  1  0
 13 26  1  0
 15 27  1  0
 16 28  1  0
 18 29  1  0
A    1
 O1 
A    2
 C1 
A    3
 N1 
A    4
 C2 
A    5
 C3 
A    6
 N2 
A    7
 C4 
A    8
 C5 
A    9
 N3 
A   10
 C6 
A   11
 C7 
A   12
 C8 
A   13
 C9 
A   14
 C10
A   15
 C11
A   16
 C12
A   17
 N4 
A   18
 C13
A   19
 C14
A   20
 H1 
A   21
 H2 
A   22
 H3 
A   23
 H4 
A   24
 H5 
A   25
 H6 
A   26
 H7 
A   27
 H8 
A   28
 H9 
A   29
 H10
M  END
>  <ref_pdb>  (166) 
x0554_0A

>  <ref_mols>  (166) 
x0451_0A,x0554_0A,x0556_0A,x0566_0A,x0310_0A,x0416_0A

>  <original SMILES>  (166) 
O=C(Nc1cnccn1)c1cccc2ccncc12

>  <rationale>  (166) 
info cluster #12 (rank 8); hbond:G127+S105; 

>  <cluster_rank>  (166) 
8

>  <N_interactions>  (166) 
2

>  <N_interactions_lost>  (166) 
0

>  <∆∆G>  (166) 
-3.499309

>  <comRMSD>  (166) 
0.512232

>  <N_rotatable_bonds>  (166) 
2

>  <N_unconstrained_atoms>  (166) 
0

>  <N_constrained_atoms>  (166) 
19

$$$$
Z942119538
     RDKit          3D

 33 35  0  0  0  0  0  0  0  0999 V2000
   11.7150    9.1640   24.2900 O   0  0  0  0  0  0  0  0  0  0  0  0
   10.6220    9.7060   24.2730 C   0  0  0  0  0  0  0  0  0  0  0  0
    9.4440    9.0370   24.3350 N   0  0  0  0  0  0  0  0  0  0  0  0
    8.3630    9.6000   23.7920 C   0  0  0  0  0  0  0  0  0  0  0  0
    7.6630   10.4040   24.6840 C   0  0  0  0  0  0  0  0  0  0  0  0
    7.6110   11.7860   24.6470 C   0  0  0  0  0  0  0  0  0  0  0  0
    6.8350   12.1910   25.6750 C   0  0  0  0  0  0  0  0  0  0  0  0
    6.4530   13.5130   26.0940 C   0  0  0  0  0  0  0  0  0  0  0  0
    5.6380   13.7720   27.1860 C   0  0  0  0  0  0  0  0  0  0  0  0
    5.1750   12.6620   27.9030 C   0  0  0  0  0  0  0  0  0  0  0  0
    5.4990   11.3330   27.5610 C   0  0  0  0  0  0  0  0  0  0  0  0
    6.3860   11.1110   26.3690 C   0  0  0  0  0  0  0  0  0  0  0  0
    6.8780   10.0280   25.7810 N   0  0  0  0  0  0  0  0  0  0  0  0
   10.5000   11.1420   24.2210 C   0  0  0  0  0  0  0  0  0  0  0  0
    9.8750   11.9040   25.1760 C   0  0  0  0  0  0  0  0  0  0  0  0
    9.7840   13.3210   25.1110 C   0  0  0  0  0  0  0  0  0  0  0  0
   10.3670   13.8990   24.0090 C   0  0  0  0  0  0  0  0  0  0  0  0
   11.0520   13.1000   22.9460 C   0  0  0  0  0  0  0  0  0  0  0  0
   11.0820   11.7330   23.1190 C   0  0  0  0  0  0  0  0  0  0  0  0
    9.2710    8.3830   25.0940 H   0  0  0  0  0  0  0  0  0  0  0  0
    8.6980   10.2100   22.9630 H   0  0  0  0  0  0  0  0  0  0  0  0
    7.7810    8.7850   23.3960 H   0  0  0  0  0  0  0  0  0  0  0  0
    8.1040   12.4340   23.9200 H   0  0  0  0  0  0  0  0  0  0  0  0
    6.8260   14.3570   25.5190 H   0  0  0  0  0  0  0  0  0  0  0  0
    5.3540   14.7660   27.4960 H   0  0  0  0  0  0  0  0  0  0  0  0
    4.5390   12.8260   28.7600 H   0  0  0  0  0  0  0  0  0  0  0  0
    5.1480   10.4690   28.1050 H   0  0  0  0  0  0  0  0  0  0  0  0
    6.7170    9.0750   26.0750 H   0  0  0  0  0  0  0  0  0  0  0  0
    9.4130   11.4370   26.0470 H   0  0  0  0  0  0  0  0  0  0  0  0
    9.2950   13.9230   25.8650 H   0  0  0  0  0  0  0  0  0  0  0  0
   10.3720   14.9830   23.8290 H   0  0  0  0  0  0  0  0  0  0  0  0
   11.5090   13.5710   22.0770 H   0  0  0  0  0  0  0  0  0  0  0  0
   11.5600   11.1020   22.4050 H   0  0  0  0  0  0  0  0  0  0  0  0
  1  2  2  0
  2  3  1  0
  3  4  1  0
  4  5  1  0
  5  6  2  0
  6  7  1  0
  7  8  2  0
  8  9  1  0
  9 10  2  0
 10 11  1  0
 11 12  2  0
 12 13  1  0
  2 14  1  0
 14 15  2  0
 15 16  1  0
 16 17  2  0
 17 18  1  0
 18 19  2  0
 13  5  1  0
 12  7  1  0
 19 14  1  0
  3 20  1  0
  4 21  1  0
  4 22  1  0
  6 23  1  0
  8 24  1  0
  9 25  1  0
 10 26  1  0
 11 27  1  0
 13 28  1  0
 15 29  1  0
 16 30  1  0
 17 31  1  0
 18 32  1  0
 19 33  1  0
A    1
 O1 
A    2
 C1 
A    3
 N1 
A    4
 C2 
A    5
 C3 
A    6
 C4 
A    7
 C5 
A    8
 C6 
A    9
 C7 
A   10
 C8 
A   11
 C9 
A   12
 C10
A   13
 N2 
A   14
 C11
A   15
 C12
A   16
 C13
A   17
 C14
A   18
 C15
A   19
 C16
A   20
 H1 
A   21
 H2 
A   22
 H3 
A   23
 H4 
A   24
 H5 
A   25
 H6 
A   26
 H7 
A   27
 H8 
A   28
 H9 
A   29
 H10
A   30
 H11
A   31
 H12
A   32
 H13
A   33
 H14
M  END
>  <ref_pdb>  (167) 
x0554_0A

>  <ref_mols>  (167) 
x0451_0A,x0554_0A,x0556_0A,x0566_0A,x0310_0A,x0416_0A

>  <original SMILES>  (167) 
O=C(NCc1cc2ccccc2[nH]1)c1ccccc1

>  <rationale>  (167) 
info cluster #17 (rank 8); hbond:C110+E106+G108+D109; 

>  <cluster_rank>  (167) 
8

>  <N_interactions>  (167) 
4

>  <N_interactions_lost>  (167) 
0

>  <∆∆G>  (167) 
-5.156057

>  <comRMSD>  (167) 
0.831274

>  <N_rotatable_bonds>  (167) 
3

>  <N_unconstrained_atoms>  (167) 
1

>  <N_constrained_atoms>  (167) 
18

$$$$
PV_006353476859
     RDKit          3D

 26 27  0  0  0  0  0  0  0  0999 V2000
    4.8760   13.5530   28.1630 C   0  0  0  0  0  0  0  0  0  0  0  0
    5.1820   12.1690   27.7310 C   0  0  0  0  0  0  0  0  0  0  0  0
    6.0310   11.7630   26.7280 C   0  0  0  0  0  0  0  0  0  0  0  0
    6.2070   10.3690   26.6440 C   0  0  0  0  0  0  0  0  0  0  0  0
    7.0510    9.8950   25.6590 C   0  0  0  0  0  0  0  0  0  0  0  0
    7.6660   10.7290   24.8150 C   0  0  0  0  0  0  0  0  0  0  0  0
    8.4030   10.0540   23.9440 N   0  0  0  0  0  0  0  0  0  0  0  0
    9.7530   10.4010   23.6140 C   0  0  0  0  0  0  0  0  0  0  0  0
   10.3000    9.8400   22.6720 O   0  0  0  0  0  0  0  0  0  0  0  0
   10.3610   11.3300   24.3830 N   0  0  0  0  0  0  0  0  0  0  0  0
   10.6370   12.5310   23.8450 C   0  0  0  0  0  0  0  0  0  0  0  0
   10.0470   13.7020   24.2690 C   0  0  0  0  0  0  0  0  0  0  0  0
   10.5500   15.0880   23.4240 S   0  0  0  0  0  0  0  0  0  0  0  0
   11.5650   14.1730   22.4640 C   0  0  0  0  0  0  0  0  0  0  0  0
   12.4180   15.0570   21.2800 Cl  0  0  0  0  0  0  0  0  0  0  0  0
   11.5580   12.8030   22.7770 C   0  0  0  0  0  0  0  0  0  0  0  0
    7.4440   12.1130   24.9580 C   0  0  0  0  0  0  0  0  0  0  0  0
    6.6240   12.6590   25.9180 N   0  0  0  0  0  0  0  0  0  0  0  0
    4.6400   14.1750   27.2930 H   0  0  0  0  0  0  0  0  0  0  0  0
    5.7020    9.6940   27.3260 H   0  0  0  0  0  0  0  0  0  0  0  0
    7.2050    8.8390   25.5780 H   0  0  0  0  0  0  0  0  0  0  0  0
    7.9040    9.5080   23.2610 H   0  0  0  0  0  0  0  0  0  0  0  0
   11.0010   11.0150   25.0900 H   0  0  0  0  0  0  0  0  0  0  0  0
    9.3180   13.7470   25.0720 H   0  0  0  0  0  0  0  0  0  0  0  0
   12.1630   12.0730   22.2690 H   0  0  0  0  0  0  0  0  0  0  0  0
    7.9050   12.8510   24.3130 H   0  0  0  0  0  0  0  0  0  0  0  0
  1  2  3  0
  2  3  1  0
  3  4  2  0
  4  5  1  0
  5  6  2  0
  6  7  1  0
  7  8  1  0
  8  9  2  0
  8 10  1  0
 10 11  1  0
 11 12  2  0
 12 13  1  0
 13 14  1  0
 14 15  1  0
 14 16  2  0
  6 17  1  0
 17 18  2  0
 18  3  1  0
 16 11  1  0
  1 19  1  0
  4 20  1  0
  5 21  1  0
  7 22  1  0
 10 23  1  0
 12 24  1  0
 16 25  1  0
 17 26  1  0
A    1
 C1 
A    2
 C2 
A    3
 C3 
A    4
 C4 
A    5
 C5 
A    6
 C6 
A    7
 N1 
A    8
 C7 
A    9
 O1 
A   10
 N2 
A   11
 C8 
A   12
 C9 
A   13
 S1 
A   14
 C10
A   15
CL1 
A   16
 C11
A   17
 C12
A   18
 N3 
A   19
 H1 
A   20
 H2 
A   21
 H3 
A   22
 H4 
A   23
 H5 
A   24
 H6 
A   25
 H7 
A   26
 H8 
M  END
>  <ref_pdb>  (168) 
x0554_0A

>  <ref_mols>  (168) 
x0451_0A,x0554_0A,x0556_0A,x0566_0A,x0310_0A,x0416_0A

>  <original SMILES>  (168) 
C#Cc1ccc(NC(=O)Nc2csc(Cl)c2)cn1

>  <rationale>  (168) 
info cluster #3 (rank 8); hbond:C110+T126; 

>  <cluster_rank>  (168) 
8

>  <N_interactions>  (168) 
2

>  <N_interactions_lost>  (168) 
0

>  <∆∆G>  (168) 
-4.369185

>  <comRMSD>  (168) 
0.735922

>  <N_rotatable_bonds>  (168) 
2

>  <N_unconstrained_atoms>  (168) 
1

>  <N_constrained_atoms>  (168) 
17

$$$$
PV_006206317385
     RDKit          3D

 29 31  0  0  0  0  0  0  0  0999 V2000
   12.4190   14.9580   21.9500 C   0  0  0  0  0  0  0  0  0  0  0  0
   11.2700   14.3270   22.6820 C   0  0  0  0  0  0  0  0  0  0  0  0
   10.0640   13.9610   22.1510 C   0  0  0  0  0  0  0  0  0  0  0  0
    9.1480   13.3830   23.1060 C   0  0  0  0  0  0  0  0  0  0  0  0
    9.8620   13.6150   24.3350 N   0  0  0  0  0  0  0  0  0  0  0  0
    9.4080   13.1380   25.5300 C   0  0  0  0  0  0  0  0  0  0  0  0
    9.7390   13.5670   26.6200 O   0  0  0  0  0  0  0  0  0  0  0  0
    8.4420   12.0470   25.4720 C   0  0  0  0  0  0  0  0  0  0  0  0
    7.2700   12.1960   26.1630 N   0  0  0  0  0  0  0  0  0  0  0  0
    6.3670   11.2110   26.1370 C   0  0  0  0  0  0  0  0  0  0  0  0
    6.5820   10.0120   25.4120 C   0  0  0  0  0  0  0  0  0  0  0  0
    7.7570    9.8790   24.7170 C   0  0  0  0  0  0  0  0  0  0  0  0
    8.7160   10.8800   24.7230 C   0  0  0  0  0  0  0  0  0  0  0  0
    9.7290   10.4410   23.9570 C   0  0  0  0  0  0  0  0  0  0  0  0
    9.4320    9.1700   23.4570 C   0  0  0  0  0  0  0  0  0  0  0  0
    8.1990    8.8100   23.9270 O   0  0  0  0  0  0  0  0  0  0  0  0
   11.2630   14.0020   24.1420 C   0  0  0  0  0  0  0  0  0  0  0  0
   12.2550   16.0270   21.8050 H   0  0  0  0  0  0  0  0  0  0  0  0
   13.3340   14.8080   22.5020 H   0  0  0  0  0  0  0  0  0  0  0  0
   12.5480   14.4870   20.9690 H   0  0  0  0  0  0  0  0  0  0  0  0
    9.8030   14.0920   21.1110 H   0  0  0  0  0  0  0  0  0  0  0  0
    9.0060   12.3120   22.9850 H   0  0  0  0  0  0  0  0  0  0  0  0
    8.1870   13.9000   23.1110 H   0  0  0  0  0  0  0  0  0  0  0  0
    5.4560   11.3770   26.7040 H   0  0  0  0  0  0  0  0  0  0  0  0
    5.8280    9.2600   25.4290 H   0  0  0  0  0  0  0  0  0  0  0  0
   10.6240   11.0090   23.7730 H   0  0  0  0  0  0  0  0  0  0  0  0
   10.0390    8.5430   22.8090 H   0  0  0  0  0  0  0  0  0  0  0  0
   11.9170   13.1670   24.3820 H   0  0  0  0  0  0  0  0  0  0  0  0
   11.4990   14.8680   24.7680 H   0  0  0  0  0  0  0  0  0  0  0  0
  1  2  1  0
  2  3  2  0
  3  4  1  0
  4  5  1  0
  5  6  1  0
  6  7  2  0
  6  8  1  0
  8  9  2  0
  9 10  1  0
 10 11  2  0
 11 12  1  0
 12 13  2  0
 13 14  1  0
 14 15  2  0
 15 16  1  0
  5 17  1  0
 17  2  1  0
 13  8  1  0
 16 12  1  0
  1 18  1  0
  1 19  1  0
  1 20  1  0
  3 21  1  0
  4 22  1  0
  4 23  1  0
 10 24  1  0
 11 25  1  0
 14 26  1  0
 15 27  1  0
 17 28  1  0
 17 29  1  0
A    1
 C1 
A    2
 C2 
A    3
 C3 
A    4
 C4 
A    5
 N1 
A    6
 C5 
A    7
 O1 
A    8
 C6 
A    9
 N2 
A   10
 C7 
A   11
 C8 
A   12
 C9 
A   13
 C10
A   14
 C11
A   15
 C12
A   16
 O2 
A   17
 C13
A   18
 H1 
A   19
 H2 
A   20
 H3 
A   21
 H4 
A   22
 H5 
A   23
 H6 
A   24
 H7 
A   25
 H8 
A   26
 H9 
A   27
 H10
A   28
 H11
A   29
 H12
M  END
>  <ref_pdb>  (169) 
x0554_0A

>  <ref_mols>  (169) 
x0451_0A,x0554_0A,x0556_0A,x0566_0A,x0310_0A,x0416_0A

>  <original SMILES>  (169) 
CC1=CCN(C(=O)c2nccc3occc23)C1

>  <rationale>  (169) 
info cluster #11 (rank 9); hydroph_interaction:Y89; 

>  <cluster_rank>  (169) 
9

>  <N_interactions>  (169) 
1

>  <N_interactions_lost>  (169) 
0

>  <∆∆G>  (169) 
-7.815846

>  <comRMSD>  (169) 
0.653932

>  <N_rotatable_bonds>  (169) 
2

>  <N_unconstrained_atoms>  (169) 
0

>  <N_constrained_atoms>  (169) 
17

$$$$
Z3241422583
     RDKit          3D

 28 30  0  0  0  0  0  0  0  0999 V2000
   12.3670   15.0260   20.4820 C   0  0  0  0  0  0  0  0  0  0  0  0
   11.4570   14.6080   21.4250 C   0  0  0  0  0  0  0  0  0  0  0  0
   10.2860   15.3090   21.5790 C   0  0  0  0  0  0  0  0  0  0  0  0
    9.3930   14.8460   22.5330 C   0  0  0  0  0  0  0  0  0  0  0  0
    9.6240   13.6860   23.3570 C   0  0  0  0  0  0  0  0  0  0  0  0
    8.7700   13.1850   24.2950 C   0  0  0  0  0  0  0  0  0  0  0  0
    8.1280   14.0360   25.1240 N   0  0  0  0  0  0  0  0  0  0  0  0
    7.3580   13.2310   25.8910 N   0  0  0  0  0  0  0  0  0  0  0  0
    7.5100   11.9340   25.5620 C   0  0  0  0  0  0  0  0  0  0  0  0
    6.9160   10.8330   26.0820 C   0  0  0  0  0  0  0  0  0  0  0  0
    7.2510    9.6260   25.5620 C   0  0  0  0  0  0  0  0  0  0  0  0
    8.1890    9.4850   24.5160 C   0  0  0  0  0  0  0  0  0  0  0  0
    8.7810   10.5920   23.9930 C   0  0  0  0  0  0  0  0  0  0  0  0
    8.4280   11.8250   24.5270 C   0  0  0  0  0  0  0  0  0  0  0  0
   10.8240   13.0370   23.1540 C   0  0  0  0  0  0  0  0  0  0  0  0
   11.7110   13.5030   22.2080 C   0  0  0  0  0  0  0  0  0  0  0  0
   12.0350   15.7510   19.7470 H   0  0  0  0  0  0  0  0  0  0  0  0
   13.2330   15.4710   20.9840 H   0  0  0  0  0  0  0  0  0  0  0  0
   12.7150   14.1730   19.8870 H   0  0  0  0  0  0  0  0  0  0  0  0
    9.9630   16.1900   21.0380 H   0  0  0  0  0  0  0  0  0  0  0  0
    8.4800   15.4440   22.6060 H   0  0  0  0  0  0  0  0  0  0  0  0
    6.7660   13.6390   26.6030 H   0  0  0  0  0  0  0  0  0  0  0  0
    6.1900   10.9030   26.8920 H   0  0  0  0  0  0  0  0  0  0  0  0
    6.7790    8.7910   25.9730 H   0  0  0  0  0  0  0  0  0  0  0  0
    8.4390    8.4990   24.1270 H   0  0  0  0  0  0  0  0  0  0  0  0
    9.5070   10.5310   23.1860 H   0  0  0  0  0  0  0  0  0  0  0  0
   11.0690   12.1580   23.7420 H   0  0  0  0  0  0  0  0  0  0  0  0
   12.6460   12.9920   22.0620 H   0  0  0  0  0  0  0  0  0  0  0  0
  1  2  1  0
  2  3  2  0
  3  4  1  0
  4  5  2  0
  5  6  1  0
  6  7  2  0
  7  8  1  0
  8  9  1  0
  9 10  2  0
 10 11  1  0
 11 12  2  0
 12 13  1  0
 13 14  2  0
  5 15  1  0
 15 16  2  0
 16  2  1  0
 14  6  1  0
 14  9  1  0
  1 17  1  0
  1 18  1  0
  1 19  1  0
  3 20  1  0
  4 21  1  0
  8 22  1  0
 10 23  1  0
 11 24  1  0
 12 25  1  0
 13 26  1  0
 15 27  1  0
 16 28  1  0
A    1
 C1 
A    2
 C2 
A    3
 C3 
A    4
 C4 
A    5
 C5 
A    6
 C6 
A    7
 N1 
A    8
 N2 
A    9
 C7 
A   10
 C8 
A   11
 C9 
A   12
 C10
A   13
 C11
A   14
 C12
A   15
 C13
A   16
 C14
A   17
 H1 
A   18
 H2 
A   19
 H3 
A   20
 H4 
A   21
 H5 
A   22
 H6 
A   23
 H7 
A   24
 H8 
A   25
 H9 
A   26
 H10
A   27
 H11
A   28
 H12
M  END
>  <ref_pdb>  (170) 
x0554_0A

>  <ref_mols>  (170) 
x0451_0A,x0554_0A,x0556_0A,x0566_0A,x0310_0A,x0416_0A

>  <original SMILES>  (170) 
Cc1ccc(-c2n[nH]c3ccccc23)cc1

>  <rationale>  (170) 
info cluster #13 (rank 9); hydroph_interaction:Y90; 

>  <cluster_rank>  (170) 
9

>  <N_interactions>  (170) 
1

>  <N_interactions_lost>  (170) 
0

>  <∆∆G>  (170) 
-7.227483

>  <comRMSD>  (170) 
0.851514

>  <N_rotatable_bonds>  (170) 
2

>  <N_unconstrained_atoms>  (170) 
0

>  <N_constrained_atoms>  (170) 
17

$$$$
Z102902208
     RDKit          3D

 31 33  0  0  0  0  0  0  0  0999 V2000
    8.8630    7.7280   22.8120 C   0  0  0  0  0  0  0  0  0  0  0  0
    8.6410    8.7220   23.9240 C   0  0  0  0  0  0  0  0  0  0  0  0
    9.5030    9.9390   23.8450 C   0  0  0  0  0  0  0  0  0  0  0  0
    8.7620   11.0550   24.3850 N   0  0  0  0  0  0  0  0  0  0  0  0
    8.9630   12.3880   24.1660 C   0  0  0  0  0  0  0  0  0  0  0  0
    9.9810   13.0270   23.3430 C   0  0  0  0  0  0  0  0  0  0  0  0
   11.3260   12.9600   23.4100 C   0  0  0  0  0  0  0  0  0  0  0  0
   11.8320   13.7790   22.3980 C   0  0  0  0  0  0  0  0  0  0  0  0
   10.7480   14.3080   21.7790 C   0  0  0  0  0  0  0  0  0  0  0  0
   10.8830   15.5160   20.3450 Br  0  0  0  0  0  0  0  0  0  0  0  0
    9.5870   13.8570   22.3330 O   0  0  0  0  0  0  0  0  0  0  0  0
    8.1080   13.1230   24.8210 N   0  0  0  0  0  0  0  0  0  0  0  0
    7.3260   12.2720   25.4870 C   0  0  0  0  0  0  0  0  0  0  0  0
    6.2600   12.5590   26.3390 C   0  0  0  0  0  0  0  0  0  0  0  0
    5.5600   11.5310   26.9430 C   0  0  0  0  0  0  0  0  0  0  0  0
    5.9400   10.2210   26.6830 C   0  0  0  0  0  0  0  0  0  0  0  0
    7.0070    9.9110   25.8360 C   0  0  0  0  0  0  0  0  0  0  0  0
    7.6880   10.9600   25.2480 C   0  0  0  0  0  0  0  0  0  0  0  0
    7.9370    7.4140   22.3290 H   0  0  0  0  0  0  0  0  0  0  0  0
    9.5050    8.1790   22.0570 H   0  0  0  0  0  0  0  0  0  0  0  0
    9.3490    6.8250   23.1690 H   0  0  0  0  0  0  0  0  0  0  0  0
    8.7960    8.1870   24.8640 H   0  0  0  0  0  0  0  0  0  0  0  0
    7.6090    9.0460   23.8850 H   0  0  0  0  0  0  0  0  0  0  0  0
    9.7710   10.1910   22.8120 H   0  0  0  0  0  0  0  0  0  0  0  0
   10.4550    9.7970   24.3730 H   0  0  0  0  0  0  0  0  0  0  0  0
   11.8800   12.3720   24.1300 H   0  0  0  0  0  0  0  0  0  0  0  0
   12.8620   13.9630   22.1590 H   0  0  0  0  0  0  0  0  0  0  0  0
    5.9840   13.5930   26.5230 H   0  0  0  0  0  0  0  0  0  0  0  0
    4.7290   11.7460   27.6060 H   0  0  0  0  0  0  0  0  0  0  0  0
    5.3880    9.4190   27.1570 H   0  0  0  0  0  0  0  0  0  0  0  0
    7.2870    8.8910   25.6520 H   0  0  0  0  0  0  0  0  0  0  0  0
  1  2  1  0
  2  3  1  0
  3  4  1  0
  4  5  1  0
  5  6  1  0
  6  7  2  0
  7  8  1  0
  8  9  2  0
  9 10  1  0
  9 11  1  0
  5 12  2  0
 12 13  1  0
 13 14  2  0
 14 15  1  0
 15 16  2  0
 16 17  1  0
 17 18  2  0
 18  4  1  0
 11  6  1  0
 18 13  1  0
  1 19  1  0
  1 20  1  0
  1 21  1  0
  2 22  1  0
  2 23  1  0
  3 24  1  0
  3 25  1  0
  7 26  1  0
  8 27  1  0
 14 28  1  0
 15 29  1  0
 16 30  1  0
 17 31  1  0
A    1
 C1 
A    2
 C2 
A    3
 C3 
A    4
 N1 
A    5
 C4 
A    6
 C5 
A    7
 C6 
A    8
 C7 
A    9
 C8 
A   10
BR1 
A   11
 O1 
A   12
 N2 
A   13
 C9 
A   14
 C10
A   15
 C11
A   16
 C12
A   17
 C13
A   18
 C14
A   19
 H1 
A   20
 H2 
A   21
 H3 
A   22
 H4 
A   23
 H5 
A   24
 H6 
A   25
 H7 
A   26
 H8 
A   27
 H9 
A   28
 H10
A   29
 H11
A   30
 H12
A   31
 H13
M  END
>  <ref_pdb>  (171) 
x0554_0A

>  <ref_mols>  (171) 
x0451_0A,x0554_0A,x0556_0A,x0566_0A,x0310_0A,x0416_0A

>  <original SMILES>  (171) 
CCCn1c(-c2ccc(Br)o2)nc2ccccc21

>  <rationale>  (171) 
info cluster #14 (rank 9); hydroph_interaction:D109+V124; 

>  <cluster_rank>  (171) 
9

>  <N_interactions>  (171) 
2

>  <N_interactions_lost>  (171) 
0

>  <∆∆G>  (171) 
-9.107279

>  <comRMSD>  (171) 
0.912152

>  <N_rotatable_bonds>  (171) 
4

>  <N_unconstrained_atoms>  (171) 
1

>  <N_constrained_atoms>  (171) 
17

$$$$
Z1392907232
     RDKit          3D

 29 31  0  0  0  0  0  0  0  0999 V2000
   11.4010   12.3360   24.0950 O   0  0  0  0  0  0  0  0  0  0  0  0
   10.4910   12.8750   23.5090 C   0  0  0  0  0  0  0  0  0  0  0  0
    9.1790   12.5690   23.5960 N   0  0  0  0  0  0  0  0  0  0  0  0
    8.8280   11.3520   24.0020 C   0  0  0  0  0  0  0  0  0  0  0  0
    9.3100   10.1250   23.5390 C   0  0  0  0  0  0  0  0  0  0  0  0
    8.8930    8.9430   24.0190 C   0  0  0  0  0  0  0  0  0  0  0  0
    7.9600    9.1320   24.9860 C   0  0  0  0  0  0  0  0  0  0  0  0
    7.3820   10.2220   25.5410 C   0  0  0  0  0  0  0  0  0  0  0  0
    6.4120   10.2000   26.5350 C   0  0  0  0  0  0  0  0  0  0  0  0
    5.9410   11.4540   26.9880 C   0  0  0  0  0  0  0  0  0  0  0  0
    6.3790   12.6370   26.5130 N   0  0  0  0  0  0  0  0  0  0  0  0
    7.3280   12.5740   25.5320 C   0  0  0  0  0  0  0  0  0  0  0  0
    7.8440   11.4090   25.0270 C   0  0  0  0  0  0  0  0  0  0  0  0
   10.6750   13.9690   22.6190 C   0  0  0  0  0  0  0  0  0  0  0  0
   11.7370   14.2230   21.7720 C   0  0  0  0  0  0  0  0  0  0  0  0
   11.5010   15.3960   21.0900 C   0  0  0  0  0  0  0  0  0  0  0  0
   10.1920   15.8790   21.5670 C   0  0  0  0  0  0  0  0  0  0  0  0
    9.7550   15.0130   22.4570 N   0  0  0  0  0  0  0  0  0  0  0  0
    8.5140   13.3220   23.6670 H   0  0  0  0  0  0  0  0  0  0  0  0
   10.0490   10.1130   22.7610 H   0  0  0  0  0  0  0  0  0  0  0  0
    9.2560    7.9770   23.6780 H   0  0  0  0  0  0  0  0  0  0  0  0
    7.6310    8.2250   25.3720 H   0  0  0  0  0  0  0  0  0  0  0  0
    6.0360    9.2820   26.9440 H   0  0  0  0  0  0  0  0  0  0  0  0
    5.1890   11.5580   27.7560 H   0  0  0  0  0  0  0  0  0  0  0  0
    7.6180   13.5650   25.2050 H   0  0  0  0  0  0  0  0  0  0  0  0
   12.6050   13.5840   21.6780 H   0  0  0  0  0  0  0  0  0  0  0  0
   12.1040   15.9070   20.3480 H   0  0  0  0  0  0  0  0  0  0  0  0
    9.6870   16.7840   21.2400 H   0  0  0  0  0  0  0  0  0  0  0  0
    8.8780   15.0900   22.9550 H   0  0  0  0  0  0  0  0  0  0  0  0
  1  2  2  0
  2  3  1  0
  3  4  1  0
  4  5  2  0
  5  6  1  0
  6  7  2  0
  7  8  1  0
  8  9  2  0
  9 10  1  0
 10 11  2  0
 11 12  1  0
 12 13  2  0
  2 14  1  0
 14 15  2  0
 15 16  1  0
 16 17  2  0
 17 18  1  0
 13  4  1  0
 13  8  1  0
 18 14  1  0
  3 19  1  0
  5 20  1  0
  6 21  1  0
  7 22  1  0
  9 23  1  0
 10 24  1  0
 12 25  1  0
 15 26  1  0
 16 27  1  0
 17 28  1  0
 18 29  1  0
A    1
 O1 
A    2
 C1 
A    3
 N1 
A    4
 C2 
A    5
 C3 
A    6
 C4 
A    7
 C5 
A    8
 C6 
A    9
 C7 
A   10
 C8 
A   11
 N2 
A   12
 C9 
A   13
 C10
A   14
 C11
A   15
 C12
A   16
 C13
A   17
 C14
A   18
 N3 
A   19
 H1 
A   20
 H2 
A   21
 H3 
A   22
 H4 
A   23
 H5 
A   24
 H6 
A   25
 H7 
A   26
 H8 
A   27
 H9 
A   28
 H10
A   29
 H11
M  END
>  <ref_pdb>  (172) 
x0554_0A

>  <ref_mols>  (172) 
x0451_0A,x0554_0A,x0556_0A,x0566_0A,x0310_0A,x0416_0A

>  <original SMILES>  (172) 
O=C(Nc1cccc2ccncc12)c1ccc[nH]1

>  <rationale>  (172) 
info cluster #2 (rank 9); hbond:S87+T126; hydroph_interaction:Y90; 

>  <cluster_rank>  (172) 
9

>  <N_interactions>  (172) 
3

>  <N_interactions_lost>  (172) 
0

>  <∆∆G>  (172) 
-7.066776

>  <comRMSD>  (172) 
0.644018

>  <N_rotatable_bonds>  (172) 
2

>  <N_unconstrained_atoms>  (172) 
0

>  <N_constrained_atoms>  (172) 
18

$$$$
PV_002720675160
     RDKit          3D

 27 29  0  0  0  0  0  0  0  0999 V2000
    8.8340    9.6130   24.3320 C   0  0  0  0  0  0  0  0  0  0  0  0
    7.8040   10.3670   25.1290 C   0  0  0  0  0  0  0  0  0  0  0  0
    6.9200    9.6560   25.8530 N   0  0  0  0  0  0  0  0  0  0  0  0
    6.0140   10.3660   26.5540 C   0  0  0  0  0  0  0  0  0  0  0  0
    5.9880   11.7430   26.5360 C   0  0  0  0  0  0  0  0  0  0  0  0
    6.8680   12.4770   25.8130 N   0  0  0  0  0  0  0  0  0  0  0  0
    7.7670   11.7370   25.1130 C   0  0  0  0  0  0  0  0  0  0  0  0
    8.7230   12.4310   24.3150 C   0  0  0  0  0  0  0  0  0  0  0  0
   10.0740   12.2360   24.2820 C   0  0  0  0  0  0  0  0  0  0  0  0
   10.6150   13.1300   23.3450 C   0  0  0  0  0  0  0  0  0  0  0  0
   11.9050   13.3990   22.8950 C   0  0  0  0  0  0  0  0  0  0  0  0
   12.1080   14.3610   21.9240 C   0  0  0  0  0  0  0  0  0  0  0  0
   11.0630   15.0620   21.4040 C   0  0  0  0  0  0  0  0  0  0  0  0
    9.7670   14.8300   21.8380 C   0  0  0  0  0  0  0  0  0  0  0  0
    9.5720   13.8570   22.8130 C   0  0  0  0  0  0  0  0  0  0  0  0
    8.4300   13.4210   23.4230 N   0  0  0  0  0  0  0  0  0  0  0  0
    8.8780    8.5670   24.6460 H   0  0  0  0  0  0  0  0  0  0  0  0
    9.8260   10.0420   24.4880 H   0  0  0  0  0  0  0  0  0  0  0  0
    8.5930    9.6230   23.2690 H   0  0  0  0  0  0  0  0  0  0  0  0
    5.3050    9.7860   27.1370 H   0  0  0  0  0  0  0  0  0  0  0  0
    5.2560   12.3060   27.1040 H   0  0  0  0  0  0  0  0  0  0  0  0
   10.6230   11.5160   24.8770 H   0  0  0  0  0  0  0  0  0  0  0  0
   12.7550   12.8670   23.2940 H   0  0  0  0  0  0  0  0  0  0  0  0
   13.0970   14.5740   21.5680 H   0  0  0  0  0  0  0  0  0  0  0  0
   11.2480   15.8170   20.6410 H   0  0  0  0  0  0  0  0  0  0  0  0
    8.9350   15.3900   21.4270 H   0  0  0  0  0  0  0  0  0  0  0  0
    7.5030   13.7790   23.2340 H   0  0  0  0  0  0  0  0  0  0  0  0
  1  2  1  0
  2  3  2  0
  3  4  1  0
  4  5  2  0
  5  6  1  0
  6  7  2  0
  7  8  1  0
  8  9  2  0
  9 10  1  0
 10 11  2  0
 11 12  1  0
 12 13  2  0
 13 14  1  0
 14 15  2  0
 15 16  1  0
  7  2  1  0
 16  8  1  0
 15 10  1  0
  1 17  1  0
  1 18  1  0
  1 19  1  0
  4 20  1  0
  5 21  1  0
  9 22  1  0
 11 23  1  0
 12 24  1  0
 13 25  1  0
 14 26  1  0
 16 27  1  0
A    1
 C1 
A    2
 C2 
A    3
 N1 
A    4
 C3 
A    5
 C4 
A    6
 N2 
A    7
 C5 
A    8
 C6 
A    9
 C7 
A   10
 C8 
A   11
 C9 
A   12
 C10
A   13
 C11
A   14
 C12
A   15
 C13
A   16
 N3 
A   17
 H1 
A   18
 H2 
A   19
 H3 
A   20
 H4 
A   21
 H5 
A   22
 H6 
A   23
 H7 
A   24
 H8 
A   25
 H9 
A   26
 H10
A   27
 H11
M  END
>  <ref_pdb>  (173) 
x0554_0A

>  <ref_mols>  (173) 
x0451_0A,x0554_0A,x0556_0A,x0566_0A,x0310_0A,x0416_0A

>  <original SMILES>  (173) 
Cc1nccnc1-c1cc2ccccc2[nH]1

>  <rationale>  (173) 
info cluster #10 (rank 9); hbond:G127; hydroph_interaction:Y89; 

>  <cluster_rank>  (173) 
9

>  <N_interactions>  (173) 
2

>  <N_interactions_lost>  (173) 
0

>  <∆∆G>  (173) 
-6.383055

>  <comRMSD>  (173) 
0.984425

>  <N_rotatable_bonds>  (173) 
2

>  <N_unconstrained_atoms>  (173) 
0

>  <N_constrained_atoms>  (173) 
16

$$$$
Z1852384755
     RDKit          3D

 27 29  0  0  0  0  0  0  0  0999 V2000
   11.3270   12.2920   24.1260 O   0  0  0  0  0  0  0  0  0  0  0  0
   10.5120   12.9100   23.4620 C   0  0  0  0  0  0  0  0  0  0  0  0
    9.1000   12.7170   23.4890 N   0  0  0  0  0  0  0  0  0  0  0  0
    8.6910   11.4840   24.0390 C   0  0  0  0  0  0  0  0  0  0  0  0
    9.2820   10.3700   23.5110 C   0  0  0  0  0  0  0  0  0  0  0  0
    8.9070    9.1580   24.0140 C   0  0  0  0  0  0  0  0  0  0  0  0
    7.9640    9.1130   25.0100 C   0  0  0  0  0  0  0  0  0  0  0  0
    7.3550   10.2500   25.5490 C   0  0  0  0  0  0  0  0  0  0  0  0
    6.4100   10.1880   26.5390 C   0  0  0  0  0  0  0  0  0  0  0  0
    5.8380   11.2560   27.0640 N   0  0  0  0  0  0  0  0  0  0  0  0
    6.2020   12.4410   26.5990 N   0  0  0  0  0  0  0  0  0  0  0  0
    7.1350   12.6070   25.6010 C   0  0  0  0  0  0  0  0  0  0  0  0
    7.7320   11.4700   25.0570 C   0  0  0  0  0  0  0  0  0  0  0  0
   10.8100   13.9440   22.5380 C   0  0  0  0  0  0  0  0  0  0  0  0
   11.8230   14.2130   21.6790 C   0  0  0  0  0  0  0  0  0  0  0  0
   11.4900   15.4250   21.0400 C   0  0  0  0  0  0  0  0  0  0  0  0
   10.2860   15.8320   21.5430 C   0  0  0  0  0  0  0  0  0  0  0  0
    9.8610   14.9380   22.4590 O   0  0  0  0  0  0  0  0  0  0  0  0
    8.5760   13.5390   23.7780 H   0  0  0  0  0  0  0  0  0  0  0  0
   10.0160   10.4360   22.7240 H   0  0  0  0  0  0  0  0  0  0  0  0
    9.3490    8.2420   23.6280 H   0  0  0  0  0  0  0  0  0  0  0  0
    7.6620    8.2120   25.4070 H   0  0  0  0  0  0  0  0  0  0  0  0
    6.0660    9.2680   26.9650 H   0  0  0  0  0  0  0  0  0  0  0  0
    7.4020   13.5920   25.2440 H   0  0  0  0  0  0  0  0  0  0  0  0
   12.7140   13.6450   21.4930 H   0  0  0  0  0  0  0  0  0  0  0  0
   12.0700   15.9400   20.2950 H   0  0  0  0  0  0  0  0  0  0  0  0
    9.6370   16.6790   21.3690 H   0  0  0  0  0  0  0  0  0  0  0  0
  1  2  2  0
  2  3  1  0
  3  4  1  0
  4  5  2  0
  5  6  1  0
  6  7  2  0
  7  8  1  0
  8  9  2  0
  9 10  1  0
 10 11  2  0
 11 12  1  0
 12 13  2  0
  2 14  1  0
 14 15  2  0
 15 16  1  0
 16 17  2  0
 17 18  1  0
 13  4  1  0
 13  8  1  0
 18 14  1  0
  3 19  1  0
  5 20  1  0
  6 21  1  0
  7 22  1  0
  9 23  1  0
 12 24  1  0
 15 25  1  0
 16 26  1  0
 17 27  1  0
A    1
 O1 
A    2
 C1 
A    3
 N1 
A    4
 C2 
A    5
 C3 
A    6
 C4 
A    7
 C5 
A    8
 C6 
A    9
 C7 
A   10
 N2 
A   11
 N3 
A   12
 C8 
A   13
 C9 
A   14
 C10
A   15
 C11
A   16
 C12
A   17
 C13
A   18
 O2 
A   19
 H1 
A   20
 H2 
A   21
 H3 
A   22
 H4 
A   23
 H5 
A   24
 H6 
A   25
 H7 
A   26
 H8 
A   27
 H9 
M  END
>  <ref_pdb>  (174) 
x0554_0A

>  <ref_mols>  (174) 
x0451_0A,x0554_0A,x0556_0A,x0566_0A,x0310_0A,x0416_0A

>  <original SMILES>  (174) 
O=C(Nc1cccc2cnncc12)c1ccco1

>  <rationale>  (174) 
info cluster #1 (rank 9); hbond:T126+G127; hydroph_interaction:Y90; 

>  <cluster_rank>  (174) 
9

>  <N_interactions>  (174) 
3

>  <N_interactions_lost>  (174) 
0

>  <∆∆G>  (174) 
-6.478628

>  <comRMSD>  (174) 
0.678179

>  <N_rotatable_bonds>  (174) 
2

>  <N_unconstrained_atoms>  (174) 
0

>  <N_constrained_atoms>  (174) 
18

$$$$
PV_002966431509
     RDKit          3D

 25 26  0  0  0  0  0  0  0  0999 V2000
    8.5020    7.8760   23.6250 C   0  0  0  0  0  0  0  0  0  0  0  0
    8.5490    9.2750   24.1750 C   0  0  0  0  0  0  0  0  0  0  0  0
    7.5470    9.9710   25.0510 C   0  0  0  0  0  0  0  0  0  0  0  0
    7.7920   11.2850   25.4560 C   0  0  0  0  0  0  0  0  0  0  0  0
    8.9710   11.9070   25.0250 C   0  0  0  0  0  0  0  0  0  0  0  0
    9.3340   13.2060   25.3460 C   0  0  0  0  0  0  0  0  0  0  0  0
    9.7840   13.7620   24.1900 N   0  0  0  0  0  0  0  0  0  0  0  0
   11.1450   14.0010   23.9320 N   0  0  0  0  0  0  0  0  0  0  0  0
   11.1040   14.5450   22.6800 C   0  0  0  0  0  0  0  0  0  0  0  0
   12.4600   15.1590   21.5840 Br  0  0  0  0  0  0  0  0  0  0  0  0
    9.8830   14.6100   22.2710 C   0  0  0  0  0  0  0  0  0  0  0  0
    8.9960   14.1460   23.1430 C   0  0  0  0  0  0  0  0  0  0  0  0
    7.1400   14.0840   22.8950 Br  0  0  0  0  0  0  0  0  0  0  0  0
    9.8780   11.2390   24.2170 C   0  0  0  0  0  0  0  0  0  0  0  0
    9.6620    9.9430   23.8010 C   0  0  0  0  0  0  0  0  0  0  0  0
    8.3550    7.1520   24.4220 H   0  0  0  0  0  0  0  0  0  0  0  0
    9.4440    7.6720   23.1110 H   0  0  0  0  0  0  0  0  0  0  0  0
    7.7180    7.7670   22.8810 H   0  0  0  0  0  0  0  0  0  0  0  0
    6.6320    9.5010   25.3900 H   0  0  0  0  0  0  0  0  0  0  0  0
    7.0840   11.8130   26.0870 H   0  0  0  0  0  0  0  0  0  0  0  0
    8.5240   13.8520   25.6710 H   0  0  0  0  0  0  0  0  0  0  0  0
   10.1210   13.3430   26.0840 H   0  0  0  0  0  0  0  0  0  0  0  0
    9.5780   15.0050   21.3080 H   0  0  0  0  0  0  0  0  0  0  0  0
   10.7630   11.7820   23.9230 H   0  0  0  0  0  0  0  0  0  0  0  0
   10.3460    9.4030   23.1750 H   0  0  0  0  0  0  0  0  0  0  0  0
  1  2  1  0
  2  3  2  0
  3  4  1  0
  4  5  2  0
  5  6  1  0
  6  7  1  0
  7  8  1  0
  8  9  2  0
  9 10  1  0
  9 11  1  0
 11 12  2  0
 12 13  1  0
  5 14  1  0
 14 15  2  0
 15  2  1  0
 12  7  1  0
  1 16  1  0
  1 17  1  0
  1 18  1  0
  3 19  1  0
  4 20  1  0
  6 21  1  0
  6 22  1  0
 11 23  1  0
 14 24  1  0
 15 25  1  0
A    1
 C1 
A    2
 C2 
A    3
 C3 
A    4
 C4 
A    5
 C5 
A    6
 C6 
A    7
 N1 
A    8
 N2 
A    9
 C7 
A   10
BR1 
A   11
 C8 
A   12
 C9 
A   13
BR2 
A   14
 C10
A   15
 C11
A   16
 H1 
A   17
 H2 
A   18
 H3 
A   19
 H4 
A   20
 H5 
A   21
 H6 
A   22
 H7 
A   23
 H8 
A   24
 H9 
A   25
 H10
M  END
>  <ref_pdb>  (175) 
x0554_0A

>  <ref_mols>  (175) 
x0451_0A,x0554_0A,x0556_0A,x0566_0A,x0310_0A,x0416_0A

>  <original SMILES>  (175) 
Cc1ccc(Cn2nc(Br)cc2Br)cc1

>  <rationale>  (175) 
info cluster #0 (rank 9); hydroph_interaction:D109+T126; 

>  <cluster_rank>  (175) 
9

>  <N_interactions>  (175) 
2

>  <N_interactions_lost>  (175) 
0

>  <∆∆G>  (175) 
-8.028693

>  <comRMSD>  (175) 
0.849519

>  <N_rotatable_bonds>  (175) 
3

>  <N_unconstrained_atoms>  (175) 
0

>  <N_constrained_atoms>  (175) 
15

$$$$
Z57819212
     RDKit          3D

 28 30  0  0  0  0  0  0  0  0999 V2000
   12.3810   12.2260   24.8060 O   0  0  0  0  0  0  0  0  0  0  0  0
   11.3480   12.5910   24.2500 C   0  0  0  0  0  0  0  0  0  0  0  0
    9.9390   12.3290   24.5930 C   0  0  0  0  0  0  0  0  0  0  0  0
    9.5180   11.0680   25.1830 C   0  0  0  0  0  0  0  0  0  0  0  0
    8.2180   10.9230   25.5650 C   0  0  0  0  0  0  0  0  0  0  0  0
    7.7160   11.9050   26.4070 C   0  0  0  0  0  0  0  0  0  0  0  0
    6.4260   11.8630   26.8780 C   0  0  0  0  0  0  0  0  0  0  0  0
    5.7140   13.3480   28.1480 I   0  0  0  0  0  0  0  0  0  0  0  0
    5.6180   10.8410   26.5100 C   0  0  0  0  0  0  0  0  0  0  0  0
    6.0970    9.8860   25.6870 C   0  0  0  0  0  0  0  0  0  0  0  0
    7.4030    9.8860   25.1840 C   0  0  0  0  0  0  0  0  0  0  0  0
    9.1520   13.4710   24.2440 C   0  0  0  0  0  0  0  0  0  0  0  0
    8.1540   13.9490   24.7460 O   0  0  0  0  0  0  0  0  0  0  0  0
    9.8660   13.8940   23.1380 C   0  0  0  0  0  0  0  0  0  0  0  0
    9.3710   14.7630   22.0740 C   0  0  0  0  0  0  0  0  0  0  0  0
   10.1340   15.1540   20.9770 C   0  0  0  0  0  0  0  0  0  0  0  0
   11.4320   14.6130   21.0220 C   0  0  0  0  0  0  0  0  0  0  0  0
   11.9170   13.7770   22.0460 C   0  0  0  0  0  0  0  0  0  0  0  0
   11.1280   13.4240   23.0910 C   0  0  0  0  0  0  0  0  0  0  0  0
   10.2050   10.2450   25.3700 H   0  0  0  0  0  0  0  0  0  0  0  0
    8.3620   12.7250   26.7060 H   0  0  0  0  0  0  0  0  0  0  0  0
    4.5930   10.7770   26.8650 H   0  0  0  0  0  0  0  0  0  0  0  0
    5.4080    9.1430   25.4540 H   0  0  0  0  0  0  0  0  0  0  0  0
    7.7590    9.0990   24.5240 H   0  0  0  0  0  0  0  0  0  0  0  0
    8.3440   15.1380   22.1200 H   0  0  0  0  0  0  0  0  0  0  0  0
    9.6660   15.7990   20.2460 H   0  0  0  0  0  0  0  0  0  0  0  0
   12.1580   14.8170   20.2460 H   0  0  0  0  0  0  0  0  0  0  0  0
   12.9150   13.4040   22.0090 H   0  0  0  0  0  0  0  0  0  0  0  0
  1  2  2  0
  2  3  1  0
  3  4  2  3
  4  5  1  0
  5  6  2  0
  6  7  1  0
  7  8  1  0
  7  9  2  0
  9 10  1  0
 10 11  2  0
  3 12  1  0
 12 13  2  0
 12 14  1  0
 14 15  2  0
 15 16  1  0
 16 17  2  0
 17 18  1  0
 18 19  2  0
 19  2  1  0
 11  5  1  0
 19 14  1  0
  4 20  1  0
  6 21  1  0
  9 22  1  0
 10 23  1  0
 11 24  1  0
 15 25  1  0
 16 26  1  0
 17 27  1  0
 18 28  1  0
A    1
 O1 
A    2
 C1 
A    3
 C2 
A    4
 C3 
A    5
 C4 
A    6
 C5 
A    7
 C6 
A    8
 I1 
A    9
 C7 
A   10
 C8 
A   11
 C9 
A   12
 C10
A   13
 O2 
A   14
 C11
A   15
 C12
A   16
 C13
A   17
 C14
A   18
 C15
A   19
 C16
A   20
 H1 
A   21
 H2 
A   22
 H3 
A   23
 H4 
A   24
 H5 
A   25
 H6 
A   26
 H7 
A   27
 H8 
A   28
 H9 
M  END
>  <ref_pdb>  (176) 
x0554_0A

>  <ref_mols>  (176) 
x0451_0A,x0554_0A,x0556_0A,x0566_0A,x0310_0A,x0416_0A

>  <original SMILES>  (176) 
O=C1C(=Cc2cccc(I)c2)C(=O)c2ccccc21

>  <rationale>  (176) 
info cluster #18 (rank 9); hydroph_interaction:P107; 

>  <cluster_rank>  (176) 
9

>  <N_interactions>  (176) 
1

>  <N_interactions_lost>  (176) 
0

>  <∆∆G>  (176) 
-5.433421

>  <comRMSD>  (176) 
0.754647

>  <N_rotatable_bonds>  (176) 
1

>  <N_unconstrained_atoms>  (176) 
1

>  <N_constrained_atoms>  (176) 
18

$$$$
Z2229681230
     RDKit          3D

 30 31  0  0  0  0  0  0  0  0999 V2000
    5.6350   10.5830   26.2970 C   0  0  0  0  0  0  0  0  0  0  0  0
    6.1610    9.8970   25.1750 O   0  0  0  0  0  0  0  0  0  0  0  0
    7.4790   10.1490   24.9670 C   0  0  0  0  0  0  0  0  0  0  0  0
    7.8860   11.3560   25.5050 C   0  0  0  0  0  0  0  0  0  0  0  0
    9.2030   11.7530   25.4220 C   0  0  0  0  0  0  0  0  0  0  0  0
   10.1300   10.9440   24.7980 C   0  0  0  0  0  0  0  0  0  0  0  0
   11.4470   11.3880   24.8020 N   0  0  0  0  0  0  0  0  0  0  0  0
   12.0050   12.6280   24.6430 C   0  0  0  0  0  0  0  0  0  0  0  0
   12.9310   13.0050   25.3320 O   0  0  0  0  0  0  0  0  0  0  0  0
   11.4480   13.4140   23.5640 C   0  0  0  0  0  0  0  0  0  0  0  0
   12.0700   14.3030   22.7410 C   0  0  0  0  0  0  0  0  0  0  0  0
   11.2030   14.8830   21.7840 C   0  0  0  0  0  0  0  0  0  0  0  0
   11.6510   15.8610   20.7890 C   0  0  0  0  0  0  0  0  0  0  0  0
    9.9300   14.4140   21.9130 C   0  0  0  0  0  0  0  0  0  0  0  0
    9.7920   13.2830   23.1770 S   0  0  0  0  0  0  0  0  0  0  0  0
    9.7270    9.7400   24.2270 C   0  0  0  0  0  0  0  0  0  0  0  0
    8.4050    9.3420   24.3100 C   0  0  0  0  0  0  0  0  0  0  0  0
    4.8380   10.0040   26.7760 H   0  0  0  0  0  0  0  0  0  0  0  0
    5.2880   11.5870   26.0230 H   0  0  0  0  0  0  0  0  0  0  0  0
    6.4410   10.6940   27.0240 H   0  0  0  0  0  0  0  0  0  0  0  0
    7.1660   11.9940   26.0070 H   0  0  0  0  0  0  0  0  0  0  0  0
    9.4880   12.7040   25.8680 H   0  0  0  0  0  0  0  0  0  0  0  0
   12.0970   10.6470   24.6190 H   0  0  0  0  0  0  0  0  0  0  0  0
   13.1190   14.5430   22.8010 H   0  0  0  0  0  0  0  0  0  0  0  0
   11.0690   16.7820   20.8880 H   0  0  0  0  0  0  0  0  0  0  0  0
   12.7110   16.0920   20.9330 H   0  0  0  0  0  0  0  0  0  0  0  0
   11.5160   15.4670   19.7730 H   0  0  0  0  0  0  0  0  0  0  0  0
    9.0560   14.6740   21.3260 H   0  0  0  0  0  0  0  0  0  0  0  0
   10.4200    9.0730   23.7160 H   0  0  0  0  0  0  0  0  0  0  0  0
    8.1480    8.3950   23.8590 H   0  0  0  0  0  0  0  0  0  0  0  0
  1  2  1  0
  2  3  1  0
  3  4  2  0
  4  5  1  0
  5  6  2  0
  6  7  1  0
  7  8  1  0
  8  9  2  0
  8 10  1  0
 10 11  2  0
 11 12  1  0
 12 13  1  0
 12 14  2  0
 14 15  1  0
  6 16  1  0
 16 17  2  0
 17  3  1  0
 15 10  1  0
  1 18  1  0
  1 19  1  0
  1 20  1  0
  4 21  1  0
  5 22  1  0
  7 23  1  0
 11 24  1  0
 13 25  1  0
 13 26  1  0
 13 27  1  0
 14 28  1  0
 16 29  1  0
 17 30  1  0
A    1
 C1 
A    2
 O1 
A    3
 C2 
A    4
 C3 
A    5
 C4 
A    6
 C5 
A    7
 N1 
A    8
 C6 
A    9
 O2 
A   10
 C7 
A   11
 C8 
A   12
 C9 
A   13
 C10
A   14
 C11
A   15
 S1 
A   16
 C12
A   17
 C13
A   18
 H1 
A   19
 H2 
A   20
 H3 
A   21
 H4 
A   22
 H5 
A   23
 H6 
A   24
 H7 
A   25
 H8 
A   26
 H9 
A   27
 H10
A   28
 H11
A   29
 H12
A   30
 H13
M  END
>  <ref_pdb>  (177) 
x0554_0A

>  <ref_mols>  (177) 
x0451_0A,x0554_0A,x0556_0A,x0566_0A,x0310_0A,x0416_0A

>  <original SMILES>  (177) 
COc1ccc(NC(=O)c2cc(C)cs2)cc1

>  <rationale>  (177) 
info cluster #9 (rank 9); hbond:G108; hydroph_interaction:Y89+Y90; 

>  <cluster_rank>  (177) 
9

>  <N_interactions>  (177) 
3

>  <N_interactions_lost>  (177) 
0

>  <∆∆G>  (177) 
-9.292155

>  <comRMSD>  (177) 
0.819838

>  <N_rotatable_bonds>  (177) 
5

>  <N_unconstrained_atoms>  (177) 
1

>  <N_constrained_atoms>  (177) 
16

$$$$
PV_006791019169
     RDKit          3D

 32 34  0  0  0  0  0  0  0  0999 V2000
    8.6290    7.5130   23.5090 C   0  0  0  0  0  0  0  0  0  0  0  0
    8.6210    8.9530   23.8760 C   0  0  0  0  0  0  0  0  0  0  0  0
    7.6960    9.6260   24.8210 C   0  0  0  0  0  0  0  0  0  0  0  0
    7.9000   10.9610   24.9610 C   0  0  0  0  0  0  0  0  0  0  0  0
    7.0890   11.7400   25.8070 C   0  0  0  0  0  0  0  0  0  0  0  0
    7.2660   13.1160   25.9790 C   0  0  0  0  0  0  0  0  0  0  0  0
    8.2670   13.7920   25.3210 C   0  0  0  0  0  0  0  0  0  0  0  0
    9.0860   13.0880   24.4860 C   0  0  0  0  0  0  0  0  0  0  0  0
   10.0510   13.7310   23.8510 C   0  0  0  0  0  0  0  0  0  0  0  0
   11.3690   13.1650   23.7990 C   0  0  0  0  0  0  0  0  0  0  0  0
   12.3720   13.8360   23.1330 C   0  0  0  0  0  0  0  0  0  0  0  0
   12.1240   15.0500   22.5090 C   0  0  0  0  0  0  0  0  0  0  0  0
   10.8480   15.5840   22.5740 C   0  0  0  0  0  0  0  0  0  0  0  0
    9.8070   14.9480   23.2370 C   0  0  0  0  0  0  0  0  0  0  0  0
    8.5980   15.4900   23.2840 N   0  0  0  0  0  0  0  0  0  0  0  0
    8.8880   11.7170   24.3190 C   0  0  0  0  0  0  0  0  0  0  0  0
    9.6640   10.9710   23.4870 C   0  0  0  0  0  0  0  0  0  0  0  0
    9.5710    9.6430   23.2430 N   0  0  0  0  0  0  0  0  0  0  0  0
    7.8660    7.2970   22.7550 H   0  0  0  0  0  0  0  0  0  0  0  0
    9.5950    7.2610   23.0800 H   0  0  0  0  0  0  0  0  0  0  0  0
    8.4640    6.9050   24.3940 H   0  0  0  0  0  0  0  0  0  0  0  0
    6.9070    9.1320   25.3710 H   0  0  0  0  0  0  0  0  0  0  0  0
    6.2770   11.2880   26.3670 H   0  0  0  0  0  0  0  0  0  0  0  0
    6.6030   13.6620   26.6470 H   0  0  0  0  0  0  0  0  0  0  0  0
    8.4040   14.8620   25.4610 H   0  0  0  0  0  0  0  0  0  0  0  0
   11.5990   12.2180   24.2730 H   0  0  0  0  0  0  0  0  0  0  0  0
   13.3470   13.3960   23.1090 H   0  0  0  0  0  0  0  0  0  0  0  0
   12.9390   15.5480   21.9880 H   0  0  0  0  0  0  0  0  0  0  0  0
   10.7170   16.5370   22.0690 H   0  0  0  0  0  0  0  0  0  0  0  0
    7.8440   14.8140   23.3420 H   0  0  0  0  0  0  0  0  0  0  0  0
    8.4350   16.1950   22.5690 H   0  0  0  0  0  0  0  0  0  0  0  0
   10.4450   11.4620   22.9400 H   0  0  0  0  0  0  0  0  0  0  0  0
  1  2  1  0
  2  3  2  0
  3  4  1  0
  4  5  2  0
  5  6  1  0
  6  7  2  0
  7  8  1  0
  8  9  1  0
  9 10  2  0
 10 11  1  0
 11 12  2  0
 12 13  1  0
 13 14  2  0
 14 15  1  0
  8 16  2  0
 16 17  1  0
 17 18  2  0
 18  2  1  0
 16  4  1  0
 14  9  1  0
  1 19  1  0
  1 20  1  0
  1 21  1  0
  3 22  1  0
  5 23  1  0
  6 24  1  0
  7 25  1  0
 10 26  1  0
 11 27  1  0
 12 28  1  0
 13 29  1  0
 15 30  1  0
 15 31  1  0
 17 32  1  0
A    1
 C1 
A    2
 C2 
A    3
 C3 
A    4
 C4 
A    5
 C5 
A    6
 C6 
A    7
 C7 
A    8
 C8 
A    9
 C9 
A   10
 C10
A   11
 C11
A   12
 C12
A   13
 C13
A   14
 C14
A   15
 N1 
A   16
 C15
A   17
 C16
A   18
 N2 
A   19
 H1 
A   20
 H2 
A   21
 H3 
A   22
 H4 
A   23
 H5 
A   24
 H6 
A   25
 H7 
A   26
 H8 
A   27
 H9 
A   28
 H10
A   29
 H11
A   30
 H12
A   31
 H13
A   32
 H14
M  END
>  <ref_pdb>  (178) 
x0554_0A

>  <ref_mols>  (178) 
x0451_0A,x0554_0A,x0556_0A,x0566_0A,x0310_0A,x0416_0A

>  <original SMILES>  (178) 
Cc1cc2cccc(-c3ccccc3N)c2cn1

>  <rationale>  (178) 
info cluster #19 (rank 9); hbond:S87; hydroph_interaction:Y89+D109+V124; 

>  <cluster_rank>  (178) 
9

>  <N_interactions>  (178) 
5

>  <N_interactions_lost>  (178) 
0

>  <∆∆G>  (178) 
-7.185735

>  <comRMSD>  (178) 
0.724852

>  <N_rotatable_bonds>  (178) 
3

>  <N_unconstrained_atoms>  (178) 
0

>  <N_constrained_atoms>  (178) 
18

$$$$
PV_003493217808
     RDKit          3D

 27 29  0  0  0  0  0  0  0  0999 V2000
   11.7810   16.0130   21.2850 C   0  0  0  0  0  0  0  0  0  0  0  0
   11.6040   15.0460   22.4020 C   0  0  0  0  0  0  0  0  0  0  0  0
   10.9130   15.1260   23.5130 N   0  0  0  0  0  0  0  0  0  0  0  0
   11.1320   13.9370   24.1610 N   0  0  0  0  0  0  0  0  0  0  0  0
   11.9330   13.2480   23.3850 C   0  0  0  0  0  0  0  0  0  0  0  0
   12.4920   11.6970   23.7980 S   0  0  0  0  0  0  0  0  0  0  0  0
   10.9990   10.8320   23.6730 C   0  0  0  0  0  0  0  0  0  0  0  0
   10.0400   11.2390   24.4120 N   0  0  0  0  0  0  0  0  0  0  0  0
    8.9510   10.4490   24.2420 C   0  0  0  0  0  0  0  0  0  0  0  0
    7.8730   10.7720   24.9990 C   0  0  0  0  0  0  0  0  0  0  0  0
    7.1360    9.8110   25.5490 C   0  0  0  0  0  0  0  0  0  0  0  0
    6.0280   10.0060   26.3370 C   0  0  0  0  0  0  0  0  0  0  0  0
    5.6940   11.3290   26.5620 C   0  0  0  0  0  0  0  0  0  0  0  0
    6.4330   12.3770   26.0170 C   0  0  0  0  0  0  0  0  0  0  0  0
    7.5260   12.0860   25.2300 C   0  0  0  0  0  0  0  0  0  0  0  0
    9.0830    9.4190   23.3400 C   0  0  0  0  0  0  0  0  0  0  0  0
   10.6560    9.4650   22.6860 S   0  0  0  0  0  0  0  0  0  0  0  0
   12.2700   13.8950   22.2490 O   0  0  0  0  0  0  0  0  0  0  0  0
   11.3320   16.9710   21.5420 H   0  0  0  0  0  0  0  0  0  0  0  0
   11.3120   15.6520   20.3630 H   0  0  0  0  0  0  0  0  0  0  0  0
   12.8460   16.1670   21.0780 H   0  0  0  0  0  0  0  0  0  0  0  0
    7.4270    8.7900   25.3700 H   0  0  0  0  0  0  0  0  0  0  0  0
    5.4580    9.2060   26.7570 H   0  0  0  0  0  0  0  0  0  0  0  0
    4.8340   11.5670   27.1770 H   0  0  0  0  0  0  0  0  0  0  0  0
    6.2090   13.4230   26.1650 H   0  0  0  0  0  0  0  0  0  0  0  0
    8.1130   12.8930   24.7960 H   0  0  0  0  0  0  0  0  0  0  0  0
    8.3760    8.6630   23.0310 H   0  0  0  0  0  0  0  0  0  0  0  0
  1  2  1  0
  2  3  2  0
  3  4  1  0
  4  5  2  0
  5  6  1  0
  6  7  1  0
  7  8  2  0
  8  9  1  0
  9 10  1  0
 10 11  2  0
 11 12  1  0
 12 13  2  0
 13 14  1  0
 14 15  2  0
  9 16  2  0
 16 17  1  0
  5 18  1  0
 18  2  1  0
 17  7  1  0
 15 10  1  0
  1 19  1  0
  1 20  1  0
  1 21  1  0
 11 22  1  0
 12 23  1  0
 13 24  1  0
 14 25  1  0
 15 26  1  0
 16 27  1  0
A    1
 C1 
A    2
 C2 
A    3
 N1 
A    4
 N2 
A    5
 C3 
A    6
 S1 
A    7
 C4 
A    8
 N3 
A    9
 C5 
A   10
 C6 
A   11
 C7 
A   12
 C8 
A   13
 C9 
A   14
 C10
A   15
 C11
A   16
 C12
A   17
 S2 
A   18
 O1 
A   19
 H1 
A   20
 H2 
A   21
 H3 
A   22
 H4 
A   23
 H5 
A   24
 H6 
A   25
 H7 
A   26
 H8 
A   27
 H9 
M  END
>  <ref_pdb>  (179) 
x0554_0A

>  <ref_mols>  (179) 
x0451_0A,x0554_0A,x0556_0A,x0566_0A,x0310_0A,x0416_0A

>  <original SMILES>  (179) 
Cc1nnc(Sc2nc(-c3ccccc3)cs2)o1

>  <rationale>  (179) 
info cluster #7 (rank 9); hbond:S87; hydroph_interaction:Y89+Y90; pistack:Y89; 

>  <cluster_rank>  (179) 
9

>  <N_interactions>  (179) 
4

>  <N_interactions_lost>  (179) 
0

>  <∆∆G>  (179) 
-7.604961

>  <comRMSD>  (179) 
0.821678

>  <N_rotatable_bonds>  (179) 
4

>  <N_unconstrained_atoms>  (179) 
0

>  <N_constrained_atoms>  (179) 
18

$$$$
PV_002904684301
     RDKit          3D

 25 27  0  0  0  0  0  0  0  0999 V2000
    5.9850   11.5500   26.5730 C   0  0  0  0  0  0  0  0  0  0  0  0
    6.2170   10.1260   26.1130 C   0  0  0  0  0  0  0  0  0  0  0  0
    7.3290    9.8990   25.3400 C   0  0  0  0  0  0  0  0  0  0  0  0
    8.2400   11.0620   24.9930 C   0  0  0  0  0  0  0  0  0  0  0  0
    9.3570   10.7560   24.1880 C   0  0  0  0  0  0  0  0  0  0  0  0
   10.2130   11.4530   23.3820 C   0  0  0  0  0  0  0  0  0  0  0  0
   10.1630   12.8230   23.1220 C   0  0  0  0  0  0  0  0  0  0  0  0
    8.8760   13.4850   23.0150 C   0  0  0  0  0  0  0  0  0  0  0  0
    8.8450   14.8410   22.7240 C   0  0  0  0  0  0  0  0  0  0  0  0
    9.9740   15.5580   22.5410 N   0  0  0  0  0  0  0  0  0  0  0  0
   11.1920   14.9520   22.6440 N   0  0  0  0  0  0  0  0  0  0  0  0
   11.2790   13.6260   22.9230 C   0  0  0  0  0  0  0  0  0  0  0  0
   11.1580   10.6860   22.7940 N   0  0  0  0  0  0  0  0  0  0  0  0
   11.0610    9.4160   23.1050 N   0  0  0  0  0  0  0  0  0  0  0  0
    9.8190    9.1100   24.1250 S   0  0  0  0  0  0  0  0  0  0  0  0
    7.9720   12.3440   25.4530 C   0  0  0  0  0  0  0  0  0  0  0  0
    6.8510   12.5880   26.2380 C   0  0  0  0  0  0  0  0  0  0  0  0
    5.0880   11.6830   27.1850 H   0  0  0  0  0  0  0  0  0  0  0  0
    5.5350    9.3270   26.3850 H   0  0  0  0  0  0  0  0  0  0  0  0
    7.5570    8.9080   24.9840 H   0  0  0  0  0  0  0  0  0  0  0  0
    7.9460   12.9400   23.1520 H   0  0  0  0  0  0  0  0  0  0  0  0
    7.9070   15.3840   22.6320 H   0  0  0  0  0  0  0  0  0  0  0  0
   12.2960   13.2500   22.9710 H   0  0  0  0  0  0  0  0  0  0  0  0
    8.6290   13.1730   25.2050 H   0  0  0  0  0  0  0  0  0  0  0  0
    6.6480   13.5940   26.5920 H   0  0  0  0  0  0  0  0  0  0  0  0
  1  2  2  0
  2  3  1  0
  3  4  2  0
  4  5  1  0
  5  6  2  0
  6  7  1  0
  7  8  2  0
  8  9  1  0
  9 10  2  0
 10 11  1  0
 11 12  2  0
  6 13  1  0
 13 14  2  0
 14 15  1  0
  4 16  1  0
 16 17  2  0
 17  1  1  0
 15  5  1  0
 12  7  1  0
  1 18  1  0
  2 19  1  0
  3 20  1  0
  8 21  1  0
  9 22  1  0
 12 23  1  0
 16 24  1  0
 17 25  1  0
A    1
 C1 
A    2
 C2 
A    3
 C3 
A    4
 C4 
A    5
 C5 
A    6
 C6 
A    7
 C7 
A    8
 C8 
A    9
 C9 
A   10
 N1 
A   11
 N2 
A   12
 C10
A   13
 N3 
A   14
 N4 
A   15
 S1 
A   16
 C11
A   17
 C12
A   18
 H1 
A   19
 H2 
A   20
 H3 
A   21
 H4 
A   22
 H5 
A   23
 H6 
A   24
 H7 
A   25
 H8 
M  END
>  <ref_pdb>  (180) 
x0554_0A

>  <ref_mols>  (180) 
x0451_0A,x0554_0A,x0556_0A,x0566_0A,x0310_0A,x0416_0A

>  <original SMILES>  (180) 
c1ccc(-c2snnc2-c2ccnnc2)cc1

>  <rationale>  (180) 
info cluster #6 (rank 9); hbond:S87+C110; 

>  <cluster_rank>  (180) 
9

>  <N_interactions>  (180) 
2

>  <N_interactions_lost>  (180) 
0

>  <∆∆G>  (180) 
-5.706772

>  <comRMSD>  (180) 
0.540147

>  <N_rotatable_bonds>  (180) 
2

>  <N_unconstrained_atoms>  (180) 
0

>  <N_constrained_atoms>  (180) 
17

$$$$
PV_006796125518
     RDKit          3D

 29 31  0  0  0  0  0  0  0  0999 V2000
   11.7260   13.6150   22.5720 C   0  0  0  0  0  0  0  0  0  0  0  0
   10.6590   13.3170   23.4750 O   0  0  0  0  0  0  0  0  0  0  0  0
   10.2860   11.9830   23.5050 C   0  0  0  0  0  0  0  0  0  0  0  0
   11.1650   10.9630   23.3050 C   0  0  0  0  0  0  0  0  0  0  0  0
   10.7340    9.6420   23.3410 C   0  0  0  0  0  0  0  0  0  0  0  0
    9.4020    9.3450   23.5960 C   0  0  0  0  0  0  0  0  0  0  0  0
    8.5180   10.3840   23.8020 C   0  0  0  0  0  0  0  0  0  0  0  0
    8.9650   11.7090   23.7480 C   0  0  0  0  0  0  0  0  0  0  0  0
    7.9320   13.0330   23.9620 S   0  0  0  0  0  0  0  0  0  0  0  0
    7.0030   12.5790   25.3220 C   0  0  0  0  0  0  0  0  0  0  0  0
    6.3080   13.5810   26.0320 N   0  0  0  0  0  0  0  0  0  0  0  0
    5.5540   13.1710   27.0480 C   0  0  0  0  0  0  0  0  0  0  0  0
    5.3210   11.8290   27.2490 C   0  0  0  0  0  0  0  0  0  0  0  0
    4.3340   11.5700   28.5900 S   0  0  0  0  0  0  0  0  0  0  0  0
    4.2340   13.2630   28.8820 C   0  0  0  0  0  0  0  0  0  0  0  0
    4.9390   14.0150   27.9760 C   0  0  0  0  0  0  0  0  0  0  0  0
    5.8660   10.8070   26.3970 C   0  0  0  0  0  0  0  0  0  0  0  0
    5.4500    9.6660   26.2790 O   0  0  0  0  0  0  0  0  0  0  0  0
    6.9350   11.2500   25.6700 N   0  0  0  0  0  0  0  0  0  0  0  0
   12.2100   14.5290   22.9230 H   0  0  0  0  0  0  0  0  0  0  0  0
   11.3480   13.7710   21.5600 H   0  0  0  0  0  0  0  0  0  0  0  0
   12.4640   12.8080   22.5470 H   0  0  0  0  0  0  0  0  0  0  0  0
   12.1890   11.2300   23.1210 H   0  0  0  0  0  0  0  0  0  0  0  0
   11.4080    8.8250   23.1790 H   0  0  0  0  0  0  0  0  0  0  0  0
    9.0630    8.3140   23.6300 H   0  0  0  0  0  0  0  0  0  0  0  0
    7.4770   10.1600   23.9990 H   0  0  0  0  0  0  0  0  0  0  0  0
    3.6560   13.6680   29.7180 H   0  0  0  0  0  0  0  0  0  0  0  0
    5.0030   15.0950   27.9880 H   0  0  0  0  0  0  0  0  0  0  0  0
    7.7750   10.6960   25.7100 H   0  0  0  0  0  0  0  0  0  0  0  0
  1  2  1  0
  2  3  1  0
  3  4  2  0
  4  5  1  0
  5  6  2  0
  6  7  1  0
  7  8  2  0
  8  9  1  0
  9 10  1  0
 10 11  2  0
 11 12  1  0
 12 13  2  0
 13 14  1  0
 14 15  1  0
 15 16  2  0
 13 17  1  0
 17 18  2  0
 17 19  1  0
  8  3  1  0
 19 10  1  0
 16 12  1  0
  1 20  1  0
  1 21  1  0
  1 22  1  0
  4 23  1  0
  5 24  1  0
  6 25  1  0
  7 26  1  0
 15 27  1  0
 16 28  1  0
 19 29  1  0
A    1
 C1 
A    2
 O1 
A    3
 C2 
A    4
 C3 
A    5
 C4 
A    6
 C5 
A    7
 C6 
A    8
 C7 
A    9
 S1 
A   10
 C8 
A   11
 N1 
A   12
 C9 
A   13
 C10
A   14
 S2 
A   15
 C11
A   16
 C12
A   17
 C13
A   18
 O2 
A   19
 N2 
A   20
 H1 
A   21
 H2 
A   22
 H3 
A   23
 H4 
A   24
 H5 
A   25
 H6 
A   26
 H7 
A   27
 H8 
A   28
 H9 
A   29
 H10
M  END
>  <ref_pdb>  (181) 
x0554_0A

>  <ref_mols>  (181) 
x0451_0A,x0554_0A,x0556_0A,x0566_0A,x0310_0A,x0416_0A

>  <original SMILES>  (181) 
COc1ccccc1Sc1nc2ccsc2c(=O)[nH]1

>  <rationale>  (181) 
info cluster #15 (rank 9); hbond:S105; 

>  <cluster_rank>  (181) 
9

>  <N_interactions>  (181) 
1

>  <N_interactions_lost>  (181) 
0

>  <∆∆G>  (181) 
-6.854195

>  <comRMSD>  (181) 
0.522789

>  <N_rotatable_bonds>  (181) 
3

>  <N_unconstrained_atoms>  (181) 
1

>  <N_constrained_atoms>  (181) 
18

$$$$
Z3245117774
     RDKit          3D

 26 27  0  0  0  0  0  0  0  0999 V2000
   11.6060   14.7760   22.3790 C   0  0  0  0  0  0  0  0  0  0  0  0
   10.8350   13.5780   22.7630 C   0  0  0  0  0  0  0  0  0  0  0  0
    9.4840   13.4860   23.0360 C   0  0  0  0  0  0  0  0  0  0  0  0
    9.1450   12.2140   23.3450 O   0  0  0  0  0  0  0  0  0  0  0  0
   10.2920   11.4560   23.2730 C   0  0  0  0  0  0  0  0  0  0  0  0
   10.2220   10.0430   23.5490 C   0  0  0  0  0  0  0  0  0  0  0  0
   10.5570    9.1640   22.7640 O   0  0  0  0  0  0  0  0  0  0  0  0
    9.7210    9.8750   24.7990 N   0  0  0  0  0  0  0  0  0  0  0  0
    8.6170   10.5370   25.3280 C   0  0  0  0  0  0  0  0  0  0  0  0
    7.4690    9.8300   25.2500 C   0  0  0  0  0  0  0  0  0  0  0  0
    6.2670   10.3230   25.7300 C   0  0  0  0  0  0  0  0  0  0  0  0
    6.2290   11.5760   26.3040 C   0  0  0  0  0  0  0  0  0  0  0  0
    7.4010   12.3140   26.3890 C   0  0  0  0  0  0  0  0  0  0  0  0
    8.5990   11.7940   25.9010 C   0  0  0  0  0  0  0  0  0  0  0  0
   11.3440   12.2690   22.9280 C   0  0  0  0  0  0  0  0  0  0  0  0
   11.2470   15.6630   22.9070 H   0  0  0  0  0  0  0  0  0  0  0  0
   12.6690   14.6520   22.6150 H   0  0  0  0  0  0  0  0  0  0  0  0
   11.5190   14.9590   21.3040 H   0  0  0  0  0  0  0  0  0  0  0  0
    8.6740   14.2000   23.0480 H   0  0  0  0  0  0  0  0  0  0  0  0
   10.0010    9.0040   25.2530 H   0  0  0  0  0  0  0  0  0  0  0  0
    7.5250    8.8670   24.8040 H   0  0  0  0  0  0  0  0  0  0  0  0
    5.3650    9.7320   25.6560 H   0  0  0  0  0  0  0  0  0  0  0  0
    5.2960   11.9800   26.6860 H   0  0  0  0  0  0  0  0  0  0  0  0
    7.3910   13.3020   26.8380 H   0  0  0  0  0  0  0  0  0  0  0  0
    9.4950   12.4010   25.9870 H   0  0  0  0  0  0  0  0  0  0  0  0
   12.3660   11.9420   22.8030 H   0  0  0  0  0  0  0  0  0  0  0  0
  1  2  1  0
  2  3  2  0
  3  4  1  0
  4  5  1  0
  5  6  1  0
  6  7  2  0
  6  8  1  0
  8  9  1  0
  9 10  2  0
 10 11  1  0
 11 12  2  0
 12 13  1  0
 13 14  2  0
  5 15  2  0
 15  2  1  0
 14  9  1  0
  1 16  1  0
  1 17  1  0
  1 18  1  0
  3 19  1  0
  8 20  1  0
 10 21  1  0
 11 22  1  0
 12 23  1  0
 13 24  1  0
 14 25  1  0
 15 26  1  0
A    1
 C1 
A    2
 C2 
A    3
 C3 
A    4
 O1 
A    5
 C4 
A    6
 C5 
A    7
 O2 
A    8
 N1 
A    9
 C6 
A   10
 C7 
A   11
 C8 
A   12
 C9 
A   13
 C10
A   14
 C11
A   15
 C12
A   16
 H1 
A   17
 H2 
A   18
 H3 
A   19
 H4 
A   20
 H5 
A   21
 H6 
A   22
 H7 
A   23
 H8 
A   24
 H9 
A   25
 H10
A   26
 H11
M  END
>  <ref_pdb>  (182) 
x0554_0A

>  <ref_mols>  (182) 
x0451_0A,x0554_0A,x0556_0A,x0566_0A,x0310_0A,x0416_0A

>  <original SMILES>  (182) 
Cc1coc(C(=O)Nc2ccccc2)c1

>  <rationale>  (182) 
info cluster #16 (rank 9); hbond:E106; hydroph_interaction:Y89+P107; 

>  <cluster_rank>  (182) 
9

>  <N_interactions>  (182) 
3

>  <N_interactions_lost>  (182) 
0

>  <∆∆G>  (182) 
-6.146238

>  <comRMSD>  (182) 
0.649704

>  <N_rotatable_bonds>  (182) 
3

>  <N_unconstrained_atoms>  (182) 
0

>  <N_constrained_atoms>  (182) 
16

$$$$
Z1742908372
     RDKit          3D

 26 27  0  0  0  0  0  0  0  0999 V2000
    5.9300   10.0360   26.5580 C   0  0  0  0  0  0  0  0  0  0  0  0
    6.3560   11.7640   26.4190 S   0  0  0  0  0  0  0  0  0  0  0  0
    7.6430   11.5890   25.3170 C   0  0  0  0  0  0  0  0  0  0  0  0
    8.4380   12.4850   24.8630 N   0  0  0  0  0  0  0  0  0  0  0  0
    9.3200   11.9800   24.0230 C   0  0  0  0  0  0  0  0  0  0  0  0
   10.2020   12.9140   23.4880 C   0  0  0  0  0  0  0  0  0  0  0  0
   11.3530   12.5100   22.9120 C   0  0  0  0  0  0  0  0  0  0  0  0
   12.1920   13.4130   22.3730 C   0  0  0  0  0  0  0  0  0  0  0  0
   11.9700   14.8550   22.3580 C   0  0  0  0  0  0  0  0  0  0  0  0
   10.7710   15.2120   22.9770 C   0  0  0  0  0  0  0  0  0  0  0  0
    9.8970   14.2770   23.5310 C   0  0  0  0  0  0  0  0  0  0  0  0
    9.1260   10.6120   23.8880 C   0  0  0  0  0  0  0  0  0  0  0  0
    9.7410    9.5940   23.1670 C   0  0  0  0  0  0  0  0  0  0  0  0
    7.9930   10.3800   24.7540 N   0  0  0  0  0  0  0  0  0  0  0  0
    5.1580    9.7550   25.8410 H   0  0  0  0  0  0  0  0  0  0  0  0
    6.8110    9.4180   26.3690 H   0  0  0  0  0  0  0  0  0  0  0  0
    5.5750    9.8240   27.5710 H   0  0  0  0  0  0  0  0  0  0  0  0
   11.6170   11.4590   22.8640 H   0  0  0  0  0  0  0  0  0  0  0  0
   13.0640   13.0170   21.9320 H   0  0  0  0  0  0  0  0  0  0  0  0
   12.6570   15.5670   21.9190 H   0  0  0  0  0  0  0  0  0  0  0  0
   10.5000   16.2570   23.0300 H   0  0  0  0  0  0  0  0  0  0  0  0
    8.9770   14.6260   23.9920 H   0  0  0  0  0  0  0  0  0  0  0  0
    9.0620    8.8540   22.7530 H   0  0  0  0  0  0  0  0  0  0  0  0
   10.2510   10.0320   22.3070 H   0  0  0  0  0  0  0  0  0  0  0  0
   10.4960    9.0130   23.6930 H   0  0  0  0  0  0  0  0  0  0  0  0
    7.5260    9.4990   24.9260 H   0  0  0  0  0  0  0  0  0  0  0  0
  1  2  1  0
  2  3  1  0
  3  4  2  0
  4  5  1  0
  5  6  1  0
  6  7  2  0
  7  8  1  0
  8  9  2  0
  9 10  1  0
 10 11  2  0
  5 12  2  0
 12 13  1  0
 12 14  1  0
 14  3  1  0
 11  6  1  0
  1 15  1  0
  1 16  1  0
  1 17  1  0
  7 18  1  0
  8 19  1  0
  9 20  1  0
 10 21  1  0
 11 22  1  0
 13 23  1  0
 13 24  1  0
 13 25  1  0
 14 26  1  0
A    1
 C1 
A    2
 S1 
A    3
 C2 
A    4
 N1 
A    5
 C3 
A    6
 C4 
A    7
 C5 
A    8
 C6 
A    9
 C7 
A   10
 C8 
A   11
 C9 
A   12
 C10
A   13
 C11
A   14
 N2 
A   15
 H1 
A   16
 H2 
A   17
 H3 
A   18
 H4 
A   19
 H5 
A   20
 H6 
A   21
 H7 
A   22
 H8 
A   23
 H9 
A   24
 H10
A   25
 H11
A   26
 H12
M  END
>  <ref_pdb>  (183) 
x0554_0A

>  <ref_mols>  (183) 
x0451_0A,x0554_0A,x0556_0A,x0566_0A,x0310_0A,x0416_0A

>  <original SMILES>  (183) 
CSc1nc(-c2ccccc2)c(C)[nH]1

>  <rationale>  (183) 
info cluster #4 (rank 9); hbond:S105; hydroph_interaction:Y89; 

>  <cluster_rank>  (183) 
9

>  <N_interactions>  (183) 
2

>  <N_interactions_lost>  (183) 
0

>  <∆∆G>  (183) 
-7.32963

>  <comRMSD>  (183) 
0.535303

>  <N_rotatable_bonds>  (183) 
4

>  <N_unconstrained_atoms>  (183) 
0

>  <N_constrained_atoms>  (183) 
15

$$$$
PV_002748819450
     RDKit          3D

 32 34  0  0  0  0  0  0  0  0999 V2000
    9.4760    9.6060   23.6400 C   0  0  0  0  0  0  0  0  0  0  0  0
    8.9720   10.8700   24.1540 C   0  0  0  0  0  0  0  0  0  0  0  0
    9.5170   12.1910   23.9100 C   0  0  0  0  0  0  0  0  0  0  0  0
   10.5090   12.4290   23.2430 N   0  0  0  0  0  0  0  0  0  0  0  0
   11.2620   13.4720   23.8050 C   0  0  0  0  0  0  0  0  0  0  0  0
   11.6220   13.5700   24.9600 O   0  0  0  0  0  0  0  0  0  0  0  0
   11.5190   14.4910   22.8840 C   0  0  0  0  0  0  0  0  0  0  0  0
   12.2630   14.3230   21.7540 C   0  0  0  0  0  0  0  0  0  0  0  0
   12.3350   15.4780   21.0650 C   0  0  0  0  0  0  0  0  0  0  0  0
   11.6210   16.4230   21.7380 C   0  0  0  0  0  0  0  0  0  0  0  0
   11.0970   15.7990   22.9090 N   0  0  0  0  0  0  0  0  0  0  0  0
    8.9290   13.2960   24.4560 C   0  0  0  0  0  0  0  0  0  0  0  0
    7.8690   13.2960   25.2230 N   0  0  0  0  0  0  0  0  0  0  0  0
    7.3390   12.1350   25.4830 C   0  0  0  0  0  0  0  0  0  0  0  0
    6.2420   12.2280   26.2870 C   0  0  0  0  0  0  0  0  0  0  0  0
    5.5130   11.0160   26.6770 C   0  0  0  0  0  0  0  0  0  0  0  0
    6.0600    9.7550   26.1450 C   0  0  0  0  0  0  0  0  0  0  0  0
    7.1800    9.7350   25.3450 C   0  0  0  0  0  0  0  0  0  0  0  0
    7.8370   10.8860   24.9870 C   0  0  0  0  0  0  0  0  0  0  0  0
    9.8190    9.7310   22.6100 H   0  0  0  0  0  0  0  0  0  0  0  0
   10.3260    9.2660   24.2380 H   0  0  0  0  0  0  0  0  0  0  0  0
    8.7080    8.8300   23.6880 H   0  0  0  0  0  0  0  0  0  0  0  0
   11.0300   11.6240   22.9860 H   0  0  0  0  0  0  0  0  0  0  0  0
   12.7190   13.3870   21.4680 H   0  0  0  0  0  0  0  0  0  0  0  0
   12.8680   15.6220   20.1310 H   0  0  0  0  0  0  0  0  0  0  0  0
   11.4770   17.4390   21.4470 H   0  0  0  0  0  0  0  0  0  0  0  0
   10.5240   16.2250   23.6240 H   0  0  0  0  0  0  0  0  0  0  0  0
    9.3160   14.3090   24.2900 H   0  0  0  0  0  0  0  0  0  0  0  0
    5.8350   13.1640   26.6850 H   0  0  0  0  0  0  0  0  0  0  0  0
    4.6330   11.0490   27.3120 H   0  0  0  0  0  0  0  0  0  0  0  0
    5.5560    8.8900   26.4050 H   0  0  0  0  0  0  0  0  0  0  0  0
    7.5770    8.8060   24.9760 H   0  0  0  0  0  0  0  0  0  0  0  0
  1  2  1  0
  2  3  2  0
  3  4  1  0
  4  5  1  0
  5  6  2  0
  5  7  1  0
  7  8  2  0
  8  9  1  0
  9 10  2  0
 10 11  1  0
  3 12  1  0
 12 13  2  0
 13 14  1  0
 14 15  2  0
 15 16  1  0
 16 17  2  0
 17 18  1  0
 18 19  2  0
 19  2  1  0
 11  7  1  0
 19 14  1  0
  1 20  1  0
  1 21  1  0
  1 22  1  0
  4 23  1  0
  8 24  1  0
  9 25  1  0
 10 26  1  0
 11 27  1  0
 12 28  1  0
 15 29  1  0
 16 30  1  0
 17 31  1  0
 18 32  1  0
A    1
 C1 
A    2
 C2 
A    3
 C3 
A    4
 N1 
A    5
 C4 
A    6
 O1 
A    7
 C5 
A    8
 C6 
A    9
 C7 
A   10
 C8 
A   11
 N2 
A   12
 C9 
A   13
 N3 
A   14
 C10
A   15
 C11
A   16
 C12
A   17
 C13
A   18
 C14
A   19
 C15
A   20
 H1 
A   21
 H2 
A   22
 H3 
A   23
 H4 
A   24
 H5 
A   25
 H6 
A   26
 H7 
A   27
 H8 
A   28
 H9 
A   29
 H10
A   30
 H11
A   31
 H12
A   32
 H13
M  END
>  <ref_pdb>  (184) 
x0554_0A

>  <ref_mols>  (184) 
x0451_0A,x0554_0A,x0556_0A,x0566_0A,x0310_0A,x0416_0A

>  <original SMILES>  (184) 
Cc1c(NC(=O)c2ccc[nH]2)cnc2ccccc12

>  <rationale>  (184) 
info cluster #8 (rank 9); hbond:S125+S87; hydroph_interaction:Y90; pistack:Y89+H21; 

>  <cluster_rank>  (184) 
9

>  <N_interactions>  (184) 
6

>  <N_interactions_lost>  (184) 
0

>  <∆∆G>  (184) 
-6.466338

>  <comRMSD>  (184) 
0.931132

>  <N_rotatable_bonds>  (184) 
3

>  <N_unconstrained_atoms>  (184) 
0

>  <N_constrained_atoms>  (184) 
20

$$$$
Z3228552240
     RDKit          3D

 32 34  0  0  0  0  0  0  0  0999 V2000
   13.4090   12.1730   23.8900 N   0  0  0  0  0  0  0  0  0  0  0  0
   12.3250   12.1670   23.0100 C   0  0  0  0  0  0  0  0  0  0  0  0
   11.0980   11.3160   23.2810 C   0  0  0  0  0  0  0  0  0  0  0  0
   10.8340    9.9380   22.9180 C   0  0  0  0  0  0  0  0  0  0  0  0
    9.6520    9.3020   23.2520 C   0  0  0  0  0  0  0  0  0  0  0  0
    8.7320   10.0370   23.9370 C   0  0  0  0  0  0  0  0  0  0  0  0
    8.9230   11.3260   24.2920 C   0  0  0  0  0  0  0  0  0  0  0  0
    7.9560   11.9840   24.9610 C   0  0  0  0  0  0  0  0  0  0  0  0
    7.7210   13.3910   24.5250 C   0  0  0  0  0  0  0  0  0  0  0  0
    6.7740   14.1090   25.1430 N   0  0  0  0  0  0  0  0  0  0  0  0
    6.0450   13.5670   26.1410 C   0  0  0  0  0  0  0  0  0  0  0  0
    5.0040   14.4050   26.7950 C   0  0  0  0  0  0  0  0  0  0  0  0
    4.2140   13.9010   27.8370 C   0  0  0  0  0  0  0  0  0  0  0  0
    4.3660   12.5830   28.3160 C   0  0  0  0  0  0  0  0  0  0  0  0
    5.4210   11.6690   27.6850 C   0  0  0  0  0  0  0  0  0  0  0  0
    6.2320   12.2370   26.5890 C   0  0  0  0  0  0  0  0  0  0  0  0
    7.2030   11.4480   25.9810 C   0  0  0  0  0  0  0  0  0  0  0  0
   10.0990   11.9930   23.9800 C   0  0  0  0  0  0  0  0  0  0  0  0
   13.6680   11.2180   24.1140 H   0  0  0  0  0  0  0  0  0  0  0  0
   14.1940   12.6020   23.3820 H   0  0  0  0  0  0  0  0  0  0  0  0
   12.0090   13.2140   22.9840 H   0  0  0  0  0  0  0  0  0  0  0  0
   12.7210   11.9610   22.0280 H   0  0  0  0  0  0  0  0  0  0  0  0
   11.5100    9.3180   22.3770 H   0  0  0  0  0  0  0  0  0  0  0  0
    9.2980    8.2970   23.0660 H   0  0  0  0  0  0  0  0  0  0  0  0
    7.7940    9.5860   24.2160 H   0  0  0  0  0  0  0  0  0  0  0  0
    8.2770   13.8750   23.7270 H   0  0  0  0  0  0  0  0  0  0  0  0
    4.8730   15.4180   26.4400 H   0  0  0  0  0  0  0  0  0  0  0  0
    3.4650   14.5360   28.2870 H   0  0  0  0  0  0  0  0  0  0  0  0
    3.7290   12.2270   29.1320 H   0  0  0  0  0  0  0  0  0  0  0  0
    5.6900   10.6430   27.9040 H   0  0  0  0  0  0  0  0  0  0  0  0
    7.3650   10.4140   26.3100 H   0  0  0  0  0  0  0  0  0  0  0  0
   10.2490   13.0410   24.2740 H   0  0  0  0  0  0  0  0  0  0  0  0
  1  2  1  0
  2  3  1  0
  3  4  2  0
  4  5  1  0
  5  6  2  0
  6  7  1  0
  7  8  1  0
  8  9  2  0
  9 10  1  0
 10 11  2  0
 11 12  1  0
 12 13  2  0
 13 14  1  0
 14 15  2  0
 15 16  1  0
 16 17  2  0
  7 18  2  0
 18  3  1  0
 17  8  1  0
 16 11  1  0
  1 19  1  0
  1 20  1  0
  2 21  1  0
  2 22  1  0
  4 23  1  0
  5 24  1  0
  6 25  1  0
  9 26  1  0
 12 27  1  0
 13 28  1  0
 14 29  1  0
 15 30  1  0
 17 31  1  0
 18 32  1  0
A    1
 N1 
A    2
 C1 
A    3
 C2 
A    4
 C3 
A    5
 C4 
A    6
 C5 
A    7
 C6 
A    8
 C7 
A    9
 C8 
A   10
 N2 
A   11
 C9 
A   12
 C10
A   13
 C11
A   14
 C12
A   15
 C13
A   16
 C14
A   17
 C15
A   18
 C16
A   19
 H1 
A   20
 H2 
A   21
 H3 
A   22
 H4 
A   23
 H5 
A   24
 H6 
A   25
 H7 
A   26
 H8 
A   27
 H9 
A   28
 H10
A   29
 H11
A   30
 H12
A   31
 H13
A   32
 H14
M  END
>  <ref_pdb>  (185) 
x0554_0A

>  <ref_mols>  (185) 
x0451_0A,x0554_0A,x0556_0A,x0566_0A,x0310_0A,x0416_0A

>  <original SMILES>  (185) 
NCc1cccc(-c2cnc3ccccc3c2)c1

>  <rationale>  (185) 
info cluster #5 (rank 9); hbond:H21; 

>  <cluster_rank>  (185) 
9

>  <N_interactions>  (185) 
1

>  <N_interactions_lost>  (185) 
0

>  <∆∆G>  (185) 
-5.779362

>  <comRMSD>  (185) 
0.390025

>  <N_rotatable_bonds>  (185) 
3

>  <N_unconstrained_atoms>  (185) 
1

>  <N_constrained_atoms>  (185) 
17

$$$$
PV_002528761459
     RDKit          3D

 30 32  0  0  0  0  0  0  0  0999 V2000
    9.1780    7.9330   23.3780 C   0  0  0  0  0  0  0  0  0  0  0  0
    8.5210    9.1180   23.0710 O   0  0  0  0  0  0  0  0  0  0  0  0
    8.6820   10.1520   23.9160 C   0  0  0  0  0  0  0  0  0  0  0  0
    9.7280   11.0190   23.9390 C   0  0  0  0  0  0  0  0  0  0  0  0
   10.7770   10.8800   23.0400 C   0  0  0  0  0  0  0  0  0  0  0  0
   11.0540    9.7530   22.6580 O   0  0  0  0  0  0  0  0  0  0  0  0
   11.4220   12.1200   22.6280 N   0  0  0  0  0  0  0  0  0  0  0  0
   10.8000   13.3700   22.6730 C   0  0  0  0  0  0  0  0  0  0  0  0
   11.4270   14.5740   22.4820 C   0  0  0  0  0  0  0  0  0  0  0  0
   10.6410   15.6680   22.5600 N   0  0  0  0  0  0  0  0  0  0  0  0
    9.3660   15.3000   22.8170 C   0  0  0  0  0  0  0  0  0  0  0  0
    9.1180   13.6050   22.9710 S   0  0  0  0  0  0  0  0  0  0  0  0
    9.5400   11.9450   24.9090 N   0  0  0  0  0  0  0  0  0  0  0  0
    8.3530   11.6840   25.5260 C   0  0  0  0  0  0  0  0  0  0  0  0
    7.7150   12.3410   26.5580 C   0  0  0  0  0  0  0  0  0  0  0  0
    6.4870   11.8660   27.0240 C   0  0  0  0  0  0  0  0  0  0  0  0
    5.9290   10.7450   26.4460 C   0  0  0  0  0  0  0  0  0  0  0  0
    6.6010   10.1190   25.4110 C   0  0  0  0  0  0  0  0  0  0  0  0
    7.8080   10.5630   24.9270 C   0  0  0  0  0  0  0  0  0  0  0  0
   10.2640    8.0530   23.3240 H   0  0  0  0  0  0  0  0  0  0  0  0
    8.8870    7.6410   24.3910 H   0  0  0  0  0  0  0  0  0  0  0  0
    8.8650    7.1680   22.6620 H   0  0  0  0  0  0  0  0  0  0  0  0
   12.1210   12.0570   21.8890 H   0  0  0  0  0  0  0  0  0  0  0  0
   12.4930   14.6660   22.2770 H   0  0  0  0  0  0  0  0  0  0  0  0
    8.5560   16.0130   22.9220 H   0  0  0  0  0  0  0  0  0  0  0  0
   10.1630   12.7040   25.1400 H   0  0  0  0  0  0  0  0  0  0  0  0
    8.1680   13.2220   27.0040 H   0  0  0  0  0  0  0  0  0  0  0  0
    5.9750   12.3740   27.8360 H   0  0  0  0  0  0  0  0  0  0  0  0
    4.9750   10.3670   26.8020 H   0  0  0  0  0  0  0  0  0  0  0  0
    6.1800    9.2690   24.9590 H   0  0  0  0  0  0  0  0  0  0  0  0
  1  2  1  0
  2  3  1  0
  3  4  2  0
  4  5  1  0
  5  6  2  0
  5  7  1  0
  7  8  1  0
  8  9  2  0
  9 10  1  0
 10 11  2  0
 11 12  1  0
  4 13  1  0
 13 14  1  0
 14 15  2  0
 15 16  1  0
 16 17  2  0
 17 18  1  0
 18 19  2  0
 19  3  1  0
 12  8  1  0
 19 14  1  0
  1 20  1  0
  1 21  1  0
  1 22  1  0
  7 23  1  0
  9 24  1  0
 11 25  1  0
 13 26  1  0
 15 27  1  0
 16 28  1  0
 17 29  1  0
 18 30  1  0
A    1
 C1 
A    2
 O1 
A    3
 C2 
A    4
 C3 
A    5
 C4 
A    6
 O2 
A    7
 N1 
A    8
 C5 
A    9
 C6 
A   10
 N2 
A   11
 C7 
A   12
 S1 
A   13
 N3 
A   14
 C8 
A   15
 C9 
A   16
 C10
A   17
 C11
A   18
 C12
A   19
 C13
A   20
 H1 
A   21
 H2 
A   22
 H3 
A   23
 H4 
A   24
 H5 
A   25
 H6 
A   26
 H7 
A   27
 H8 
A   28
 H9 
A   29
 H10
A   30
 H11
M  END
>  <ref_pdb>  (186) 
x0554_0A

>  <ref_mols>  (186) 
x0451_0A,x0554_0A,x0556_0A,x0566_0A,x0310_0A,x0416_0A

>  <original SMILES>  (186) 
COc1c(C(=O)Nc2cncs2)[nH]c2ccccc12

>  <rationale>  (186) 
info cluster #20 (rank 9); hbond:S87+C110; hydroph_interaction:P107; 

>  <cluster_rank>  (186) 
9

>  <N_interactions>  (186) 
3

>  <N_interactions_lost>  (186) 
0

>  <∆∆G>  (186) 
-6.010826

>  <comRMSD>  (186) 
0.63311

>  <N_rotatable_bonds>  (186) 
4

>  <N_unconstrained_atoms>  (186) 
1

>  <N_constrained_atoms>  (186) 
18

$$$$
PV_002295141590
     RDKit          3D

 27 29  0  0  0  0  0  0  0  0999 V2000
    8.1330   13.5540   26.4470 O   0  0  0  0  0  0  0  0  0  0  0  0
    7.4700   12.6440   25.9600 C   0  0  0  0  0  0  0  0  0  0  0  0
    6.0410   12.5180   25.9410 N   0  0  0  0  0  0  0  0  0  0  0  0
    5.5400   11.6540   26.8930 C   0  0  0  0  0  0  0  0  0  0  0  0
    5.0420   10.2640   26.5960 C   0  0  0  0  0  0  0  0  0  0  0  0
    4.5420    9.6870   27.8880 C   0  0  0  0  0  0  0  0  0  0  0  0
    4.6650   10.4520   28.9660 N   0  0  0  0  0  0  0  0  0  0  0  0
    5.3590   11.9270   28.5600 S   0  0  0  0  0  0  0  0  0  0  0  0
    8.1000   11.4490   25.2630 C   0  0  0  0  0  0  0  0  0  0  0  0
    7.5550   10.2900   25.4460 N   0  0  0  0  0  0  0  0  0  0  0  0
    8.1370    9.2480   24.8510 N   0  0  0  0  0  0  0  0  0  0  0  0
    9.0840    9.3270   23.8740 C   0  0  0  0  0  0  0  0  0  0  0  0
    9.3310    8.3800   23.1400 O   0  0  0  0  0  0  0  0  0  0  0  0
    9.7500   10.5520   23.7750 C   0  0  0  0  0  0  0  0  0  0  0  0
   10.8410   10.6520   23.0280 C   0  0  0  0  0  0  0  0  0  0  0  0
   11.5030   11.8400   22.9240 C   0  0  0  0  0  0  0  0  0  0  0  0
   11.0210   13.0070   23.6110 C   0  0  0  0  0  0  0  0  0  0  0  0
    9.9000   12.8820   24.3750 C   0  0  0  0  0  0  0  0  0  0  0  0
    9.2740   11.6540   24.4590 C   0  0  0  0  0  0  0  0  0  0  0  0
    5.6370   12.3890   25.0100 H   0  0  0  0  0  0  0  0  0  0  0  0
    5.0150    9.7450   25.6470 H   0  0  0  0  0  0  0  0  0  0  0  0
    4.1000    8.7110   27.9890 H   0  0  0  0  0  0  0  0  0  0  0  0
    8.1970    8.4080   25.4200 H   0  0  0  0  0  0  0  0  0  0  0  0
   11.2130    9.7850   22.4950 H   0  0  0  0  0  0  0  0  0  0  0  0
   12.4010   11.9400   22.3220 H   0  0  0  0  0  0  0  0  0  0  0  0
   11.5400   13.9610   23.5280 H   0  0  0  0  0  0  0  0  0  0  0  0
    9.5460   13.7660   24.8960 H   0  0  0  0  0  0  0  0  0  0  0  0
  1  2  2  0
  2  3  1  0
  3  4  1  0
  4  5  2  0
  5  6  1  0
  6  7  2  0
  7  8  1  0
  2  9  1  0
  9 10  2  0
 10 11  1  0
 11 12  1  0
 12 13  2  0
 12 14  1  0
 14 15  2  0
 15 16  1  0
 16 17  2  0
 17 18  1  0
 18 19  2  0
  8  4  1  0
 19  9  1  0
 19 14  1  0
  3 20  1  0
  5 21  1  0
  6 22  1  0
 11 23  1  0
 15 24  1  0
 16 25  1  0
 17 26  1  0
 18 27  1  0
A    1
 O1 
A    2
 C1 
A    3
 N1 
A    4
 C2 
A    5
 C3 
A    6
 C4 
A    7
 N2 
A    8
 S1 
A    9
 C5 
A   10
 N3 
A   11
 N4 
A   12
 C6 
A   13
 O2 
A   14
 C7 
A   15
 C8 
A   16
 C9 
A   17
 C10
A   18
 C11
A   19
 C12
A   20
 H1 
A   21
 H2 
A   22
 H3 
A   23
 H4 
A   24
 H5 
A   25
 H6 
A   26
 H7 
A   27
 H8 
M  END
>  <ref_pdb>  (187) 
x0554_0A

>  <ref_mols>  (187) 
x0451_0A,x0554_0A,x0556_0A,x0566_0A,x0310_0A,x0416_0A

>  <original SMILES>  (187) 
O=C(Nc1ccns1)c1n[nH]c(=O)c2ccccc12

>  <rationale>  (187) 
info cluster #12 (rank 9); hbond:G127+S105; 

>  <cluster_rank>  (187) 
9

>  <N_interactions>  (187) 
2

>  <N_interactions_lost>  (187) 
0

>  <∆∆G>  (187) 
-4.116119

>  <comRMSD>  (187) 
0.63916

>  <N_rotatable_bonds>  (187) 
2

>  <N_unconstrained_atoms>  (187) 
0

>  <N_constrained_atoms>  (187) 
19

$$$$
Z5189099871
     RDKit          3D

 28 29  0  0  0  0  0  0  0  0999 V2000
    5.9520   12.8390   28.3820 C   0  0  0  0  0  0  0  0  0  0  0  0
    5.2630   13.5540   27.2580 C   0  0  0  0  0  0  0  0  0  0  0  0
    5.1530   12.8340   26.0660 C   0  0  0  0  0  0  0  0  0  0  0  0
    6.1940   12.0780   25.6960 N   0  0  0  0  0  0  0  0  0  0  0  0
    6.2290   10.7170   25.8750 C   0  0  0  0  0  0  0  0  0  0  0  0
    7.4170   10.3540   25.3990 C   0  0  0  0  0  0  0  0  0  0  0  0
    8.1330   11.5100   24.9140 C   0  0  0  0  0  0  0  0  0  0  0  0
    9.3880   11.6060   24.3800 C   0  0  0  0  0  0  0  0  0  0  0  0
    9.7060   12.7920   23.4700 C   0  0  0  0  0  0  0  0  0  0  0  0
   11.1100   12.7770   23.0180 C   0  0  0  0  0  0  0  0  0  0  0  0
   12.0280   11.8410   23.3560 C   0  0  0  0  0  0  0  0  0  0  0  0
   11.6940   10.7850   24.1720 N   0  0  0  0  0  4  0  0  0  0  0  0
   12.5340    9.8750   24.5300 O   0  0  0  0  0  1  0  0  0  0  0  0
   10.4630   10.6970   24.6250 C   0  0  0  0  0  0  0  0  0  0  0  0
    7.3170   12.6090   25.1120 N   0  0  0  0  0  0  0  0  0  0  0  0
    6.2240   13.5420   29.1750 H   0  0  0  0  0  0  0  0  0  0  0  0
    5.3110   12.0480   28.7890 H   0  0  0  0  0  0  0  0  0  0  0  0
    6.8740   12.3590   28.0410 H   0  0  0  0  0  0  0  0  0  0  0  0
    5.8400   14.4670   27.0820 H   0  0  0  0  0  0  0  0  0  0  0  0
    4.2490   13.8290   27.5700 H   0  0  0  0  0  0  0  0  0  0  0  0
    4.3010   12.1540   26.1430 H   0  0  0  0  0  0  0  0  0  0  0  0
    4.9490   13.5090   25.2300 H   0  0  0  0  0  0  0  0  0  0  0  0
    5.4070   10.1450   26.3270 H   0  0  0  0  0  0  0  0  0  0  0  0
    7.9210    9.3870   25.3240 H   0  0  0  0  0  0  0  0  0  0  0  0
    9.0930   13.6120   23.1230 H   0  0  0  0  0  0  0  0  0  0  0  0
   11.4400   13.5810   22.3670 H   0  0  0  0  0  0  0  0  0  0  0  0
   13.0530   11.8510   23.0250 H   0  0  0  0  0  0  0  0  0  0  0  0
   10.3610    9.8220   25.2460 H   0  0  0  0  0  0  0  0  0  0  0  0
  1  2  1  0
  2  3  1  0
  3  4  1  0
  4  5  1  0
  5  6  2  0
  6  7  1  0
  7  8  1  0
  8  9  2  0
  9 10  1  0
 10 11  2  0
 11 12  1  0
 12 13  1  0
 12 14  2  0
  7 15  2  0
 15  4  1  0
 14  8  1  0
  1 16  1  0
  1 17  1  0
  1 18  1  0
  2 19  1  0
  2 20  1  0
  3 21  1  0
  3 22  1  0
  5 23  1  0
  6 24  1  0
  9 25  1  0
 10 26  1  0
 11 27  1  0
 14 28  1  0
M  CHG  2  12   1  13  -1
A    1
 C1 
A    2
 C2 
A    3
 C3 
A    4
 N1 
A    5
 C4 
A    6
 C5 
A    7
 C6 
A    8
 C7 
A    9
 C8 
A   10
 C9 
A   11
 C10
A   12
 N2 
A   13
 O1 
A   14
 C11
A   15
 N3 
A   16
 H1 
A   17
 H2 
A   18
 H3 
A   19
 H4 
A   20
 H5 
A   21
 H6 
A   22
 H7 
A   23
 H8 
A   24
 H9 
A   25
 H10
A   26
 H11
A   27
 H12
A   28
 H13
M  END
>  <ref_pdb>  (188) 
x0554_0A

>  <ref_mols>  (188) 
x0451_0A,x0554_0A,x0556_0A,x0566_0A,x0310_0A,x0416_0A

>  <original SMILES>  (188) 
CCCn1ccc(-c2ccc[n+]([O-])c2)n1

>  <rationale>  (188) 
info cluster #17 (rank 9); hbond:C110+G108+D109; 

>  <cluster_rank>  (188) 
9

>  <N_interactions>  (188) 
3

>  <N_interactions_lost>  (188) 
0

>  <∆∆G>  (188) 
-5.465617

>  <comRMSD>  (188) 
0.716698

>  <N_rotatable_bonds>  (188) 
4

>  <N_unconstrained_atoms>  (188) 
1

>  <N_constrained_atoms>  (188) 
14

$$$$
Z45654193
     RDKit          3D

 26 27  0  0  0  0  0  0  0  0999 V2000
   10.8530   11.3470   25.1120 O   0  0  0  0  0  0  0  0  0  0  0  0
   10.6170   11.5040   23.7070 S   0  0  0  0  0  6  0  0  0  0  0  0
   10.9230   10.4850   22.7390 O   0  0  0  0  0  0  0  0  0  0  0  0
    8.9980   11.8640   23.5520 N   0  0  0  0  0  0  0  0  0  0  0  0
    8.1310   11.2970   24.4580 C   0  0  0  0  0  0  0  0  0  0  0  0
    7.1640   12.0790   25.2380 C   0  0  0  0  0  0  0  0  0  0  0  0
    6.3610   11.4020   26.1210 C   0  0  0  0  0  0  0  0  0  0  0  0
    6.5450   10.0330   26.1950 C   0  0  0  0  0  0  0  0  0  0  0  0
    7.5100    9.4240   25.3960 C   0  0  0  0  0  0  0  0  0  0  0  0
    8.2920   10.0140   24.5380 N   0  0  0  0  0  0  0  0  0  0  0  0
   11.0740   13.0860   23.1780 C   0  0  0  0  0  0  0  0  0  0  0  0
   12.1310   13.3940   22.1500 C   0  0  0  0  0  0  0  0  0  0  0  0
   12.3150   14.7540   21.8290 C   0  0  0  0  0  0  0  0  0  0  0  0
   11.5930   15.7110   22.4190 C   0  0  0  0  0  0  0  0  0  0  0  0
   10.6260   15.4340   23.3870 C   0  0  0  0  0  0  0  0  0  0  0  0
   10.3620   14.1220   23.7700 C   0  0  0  0  0  0  0  0  0  0  0  0
    8.7350   12.4450   22.7700 H   0  0  0  0  0  0  0  0  0  0  0  0
    7.0780   13.1520   25.1290 H   0  0  0  0  0  0  0  0  0  0  0  0
    5.6200   11.9120   26.7310 H   0  0  0  0  0  0  0  0  0  0  0  0
    5.9430    9.4370   26.8730 H   0  0  0  0  0  0  0  0  0  0  0  0
    7.6930    8.3800   25.4290 H   0  0  0  0  0  0  0  0  0  0  0  0
   12.7090   12.5970   21.6840 H   0  0  0  0  0  0  0  0  0  0  0  0
   13.0590   15.0540   21.0850 H   0  0  0  0  0  0  0  0  0  0  0  0
   11.7690   16.7410   22.1380 H   0  0  0  0  0  0  0  0  0  0  0  0
   10.0950   16.2370   23.8150 H   0  0  0  0  0  0  0  0  0  0  0  0
    9.6230   13.8380   24.5040 H   0  0  0  0  0  0  0  0  0  0  0  0
  1  2  2  0
  2  3  2  0
  2  4  1  0
  4  5  1  0
  5  6  2  0
  6  7  1  0
  7  8  2  0
  8  9  1  0
  9 10  2  0
  2 11  1  0
 11 12  2  0
 12 13  1  0
 13 14  2  0
 14 15  1  0
 15 16  2  0
 10  5  1  0
 16 11  1  0
  4 17  1  0
  6 18  1  0
  7 19  1  0
  8 20  1  0
  9 21  1  0
 12 22  1  0
 13 23  1  0
 14 24  1  0
 15 25  1  0
 16 26  1  0
A    1
 O1 
A    2
 S1 
A    3
 O2 
A    4
 N1 
A    5
 C1 
A    6
 C2 
A    7
 C3 
A    8
 C4 
A    9
 C5 
A   10
 N2 
A   11
 C6 
A   12
 C7 
A   13
 C8 
A   14
 C9 
A   15
 C10
A   16
 C11
A   17
 H1 
A   18
 H2 
A   19
 H3 
A   20
 H4 
A   21
 H5 
A   22
 H6 
A   23
 H7 
A   24
 H8 
A   25
 H9 
A   26
 H10
M  END
>  <ref_pdb>  (189) 
x0554_0A

>  <ref_mols>  (189) 
x0451_0A,x0554_0A,x0556_0A,x0566_0A,x0310_0A,x0416_0A

>  <original SMILES>  (189) 
O=S(=O)(Nc1ccccn1)c1ccccc1

>  <rationale>  (189) 
info cluster #3 (rank 9); hbond:C110+T126+G108; hydroph_interaction:Y89; 

>  <cluster_rank>  (189) 
9

>  <N_interactions>  (189) 
4

>  <N_interactions_lost>  (189) 
0

>  <∆∆G>  (189) 
-3.271342

>  <comRMSD>  (189) 
0.681531

>  <N_rotatable_bonds>  (189) 
3

>  <N_unconstrained_atoms>  (189) 
0

>  <N_constrained_atoms>  (189) 
16

$$$$
Z31222895
     RDKit          3D

 31 33  0  0  0  0  0  0  0  0999 V2000
    9.6140    8.3750   22.9900 C   0  0  0  0  0  0  0  0  0  0  0  0
    8.9950    9.0380   24.1000 N   0  0  0  0  0  0  0  0  0  0  0  0
    8.8400   10.3830   24.2060 C   0  0  0  0  0  0  0  0  0  0  0  0
    9.5510   11.2350   23.5250 N   0  0  0  0  0  0  0  0  0  0  0  0
    9.2890   12.5780   23.7240 C   0  0  0  0  0  0  0  0  0  0  0  0
   10.0340   13.5490   22.9570 C   0  0  0  0  0  0  0  0  0  0  0  0
    9.3190   14.6270   22.3440 C   0  0  0  0  0  0  0  0  0  0  0  0
    9.9850   15.5900   21.5750 C   0  0  0  0  0  0  0  0  0  0  0  0
   11.4400   15.4990   21.3860 C   0  0  0  0  0  0  0  0  0  0  0  0
   12.0650   14.4350   22.0130 C   0  0  0  0  0  0  0  0  0  0  0  0
   11.3960   13.4900   22.7770 C   0  0  0  0  0  0  0  0  0  0  0  0
    8.3490   13.0100   24.6020 N   0  0  0  0  0  0  0  0  0  0  0  0
    7.6660   12.1380   25.2590 C   0  0  0  0  0  0  0  0  0  0  0  0
    6.6330   12.5820   26.2140 C   0  0  0  0  0  0  0  0  0  0  0  0
    5.8930   11.6410   26.9120 C   0  0  0  0  0  0  0  0  0  0  0  0
    6.1040   10.2620   26.7320 C   0  0  0  0  0  0  0  0  0  0  0  0
    7.0970    9.8770   25.8210 C   0  0  0  0  0  0  0  0  0  0  0  0
    7.8500   10.7850   25.1120 C   0  0  0  0  0  0  0  0  0  0  0  0
    9.7400    9.1020   22.1850 H   0  0  0  0  0  0  0  0  0  0  0  0
    8.9780    7.5490   22.6620 H   0  0  0  0  0  0  0  0  0  0  0  0
   10.5880    8.0040   23.3060 H   0  0  0  0  0  0  0  0  0  0  0  0
    9.3990    8.7230   24.9810 H   0  0  0  0  0  0  0  0  0  0  0  0
    8.2340   14.6960   22.4790 H   0  0  0  0  0  0  0  0  0  0  0  0
    9.2540   16.3200   21.2010 H   0  0  0  0  0  0  0  0  0  0  0  0
   11.9950   16.2130   20.7990 H   0  0  0  0  0  0  0  0  0  0  0  0
   13.1180   14.3320   21.9130 H   0  0  0  0  0  0  0  0  0  0  0  0
   11.9540   12.6910   23.2450 H   0  0  0  0  0  0  0  0  0  0  0  0
    6.4520   13.6390   26.3650 H   0  0  0  0  0  0  0  0  0  0  0  0
    5.1400   12.0020   27.6060 H   0  0  0  0  0  0  0  0  0  0  0  0
    5.5290    9.5250   27.2730 H   0  0  0  0  0  0  0  0  0  0  0  0
    7.3370    8.8520   25.6170 H   0  0  0  0  0  0  0  0  0  0  0  0
  1  2  1  0
  2  3  1  0
  3  4  2  0
  4  5  1  0
  5  6  1  0
  6  7  2  0
  7  8  1  0
  8  9  2  0
  9 10  1  0
 10 11  2  0
  5 12  2  0
 12 13  1  0
 13 14  2  0
 14 15  1  0
 15 16  2  0
 16 17  1  0
 17 18  2  0
 18  3  1  0
 11  6  1  0
 18 13  1  0
  1 19  1  0
  1 20  1  0
  1 21  1  0
  2 22  1  0
  7 23  1  0
  8 24  1  0
  9 25  1  0
 10 26  1  0
 11 27  1  0
 14 28  1  0
 15 29  1  0
 16 30  1  0
 17 31  1  0
A    1
 C1 
A    2
 N1 
A    3
 C2 
A    4
 N2 
A    5
 C3 
A    6
 C4 
A    7
 C5 
A    8
 C6 
A    9
 C7 
A   10
 C8 
A   11
 C9 
A   12
 N3 
A   13
 C10
A   14
 C11
A   15
 C12
A   16
 C13
A   17
 C14
A   18
 C15
A   19
 H1 
A   20
 H2 
A   21
 H3 
A   22
 H4 
A   23
 H5 
A   24
 H6 
A   25
 H7 
A   26
 H8 
A   27
 H9 
A   28
 H10
A   29
 H11
A   30
 H12
A   31
 H13
M  END
>  <ref_pdb>  (190) 
x0554_0A

>  <ref_mols>  (190) 
x0451_0A,x0554_0A,x0556_0A,x0566_0A,x0310_0A,x0416_0A

>  <original SMILES>  (190) 
CNc1nc(-c2ccccc2)nc2ccccc12

>  <rationale>  (190) 
info cluster #11 (rank 10); hbond:E106; hydroph_interaction:Y89; 

>  <cluster_rank>  (190) 
10

>  <N_interactions>  (190) 
2

>  <N_interactions_lost>  (190) 
0

>  <∆∆G>  (190) 
-8.657094

>  <comRMSD>  (190) 
0.644718

>  <N_rotatable_bonds>  (190) 
3

>  <N_unconstrained_atoms>  (190) 
1

>  <N_constrained_atoms>  (190) 
17

$$$$
Z57298762
     RDKit          3D

 28 30  0  0  0  0  0  0  0  0999 V2000
    9.0030    8.5910   23.5780 C   0  0  0  0  0  0  0  0  0  0  0  0
    9.4840   10.0430   23.6460 C   0  0  0  0  0  0  0  0  0  0  0  0
    8.6410   11.0440   24.3210 N   0  0  0  0  0  0  0  0  0  0  0  0
    8.7700   12.4730   24.0790 C   0  0  0  0  0  0  0  0  0  0  0  0
    9.7340   13.1240   23.1210 C   0  0  0  0  0  0  0  0  0  0  0  0
   11.1420   13.0010   23.2430 C   0  0  0  0  0  0  0  0  0  0  0  0
   11.8290   13.6660   22.2950 C   0  0  0  0  0  0  0  0  0  0  0  0
   10.7780   14.2490   21.5250 C   0  0  0  0  0  0  0  0  0  0  0  0
    9.5230   13.9210   22.0270 O   0  0  0  0  0  0  0  0  0  0  0  0
    7.9410   13.1600   24.7890 N   0  0  0  0  0  0  0  0  0  0  0  0
    7.2390   12.2460   25.5000 C   0  0  0  0  0  0  0  0  0  0  0  0
    6.2190   12.5150   26.4070 C   0  0  0  0  0  0  0  0  0  0  0  0
    5.5930   11.4520   27.0440 C   0  0  0  0  0  0  0  0  0  0  0  0
    5.9920   10.1570   26.7740 C   0  0  0  0  0  0  0  0  0  0  0  0
    7.0200    9.8660   25.8710 C   0  0  0  0  0  0  0  0  0  0  0  0
    7.6300   10.9240   25.2430 C   0  0  0  0  0  0  0  0  0  0  0  0
    8.1230    8.4500   22.9520 H   0  0  0  0  0  0  0  0  0  0  0  0
    9.7890    7.9400   23.1780 H   0  0  0  0  0  0  0  0  0  0  0  0
    8.7580    8.2170   24.5780 H   0  0  0  0  0  0  0  0  0  0  0  0
   10.4150   10.0060   24.2270 H   0  0  0  0  0  0  0  0  0  0  0  0
    9.7640   10.4180   22.6680 H   0  0  0  0  0  0  0  0  0  0  0  0
   11.5950   12.4220   24.0360 H   0  0  0  0  0  0  0  0  0  0  0  0
   12.8840   13.7480   22.1470 H   0  0  0  0  0  0  0  0  0  0  0  0
   10.7710   14.8800   20.6500 H   0  0  0  0  0  0  0  0  0  0  0  0
    5.9230   13.5390   26.6030 H   0  0  0  0  0  0  0  0  0  0  0  0
    4.7890   11.6390   27.7560 H   0  0  0  0  0  0  0  0  0  0  0  0
    5.4840    9.3530   27.2860 H   0  0  0  0  0  0  0  0  0  0  0  0
    7.3230    8.8540   25.6730 H   0  0  0  0  0  0  0  0  0  0  0  0
  1  2  1  0
  2  3  1  0
  3  4  1  0
  4  5  1  0
  5  6  2  0
  6  7  1  0
  7  8  2  0
  8  9  1  0
  4 10  2  0
 10 11  1  0
 11 12  2  0
 12 13  1  0
 13 14  2  0
 14 15  1  0
 15 16  2  0
 16  3  1  0
  9  5  1  0
 16 11  1  0
  1 17  1  0
  1 18  1  0
  1 19  1  0
  2 20  1  0
  2 21  1  0
  6 22  1  0
  7 23  1  0
  8 24  1  0
 12 25  1  0
 13 26  1  0
 14 27  1  0
 15 28  1  0
A    1
 C1 
A    2
 C2 
A    3
 N1 
A    4
 C3 
A    5
 C4 
A    6
 C5 
A    7
 C6 
A    8
 C7 
A    9
 O1 
A   10
 N2 
A   11
 C8 
A   12
 C9 
A   13
 C10
A   14
 C11
A   15
 C12
A   16
 C13
A   17
 H1 
A   18
 H2 
A   19
 H3 
A   20
 H4 
A   21
 H5 
A   22
 H6 
A   23
 H7 
A   24
 H8 
A   25
 H9 
A   26
 H10
A   27
 H11
A   28
 H12
M  END
>  <ref_pdb>  (191) 
x0554_0A

>  <ref_mols>  (191) 
x0451_0A,x0554_0A,x0556_0A,x0566_0A,x0310_0A,x0416_0A

>  <original SMILES>  (191) 
CCn1c(-c2ccco2)nc2ccccc21

>  <rationale>  (191) 
info cluster #13 (rank 10); 

>  <cluster_rank>  (191) 
10

>  <N_interactions>  (191) 
0

>  <N_interactions_lost>  (191) 
0

>  <∆∆G>  (191) 
-8.307448

>  <comRMSD>  (191) 
0.858333

>  <N_rotatable_bonds>  (191) 
3

>  <N_unconstrained_atoms>  (191) 
0

>  <N_constrained_atoms>  (191) 
17

$$$$
Z3484523062
     RDKit          3D

 29 31  0  0  0  0  0  0  0  0999 V2000
    8.6040    7.4970   23.5480 C   0  0  0  0  0  0  0  0  0  0  0  0
    8.5960    8.9380   23.9110 C   0  0  0  0  0  0  0  0  0  0  0  0
    9.5910    9.7170   23.2460 C   0  0  0  0  0  0  0  0  0  0  0  0
    9.8140   11.0290   23.3680 N   0  0  0  0  0  0  0  0  0  0  0  0
    8.9480   11.6360   24.2370 C   0  0  0  0  0  0  0  0  0  0  0  0
    9.0760   13.0110   24.4340 C   0  0  0  0  0  0  0  0  0  0  0  0
   10.0490   13.7190   23.7620 C   0  0  0  0  0  0  0  0  0  0  0  0
   11.2560   13.1630   23.4780 C   0  0  0  0  0  0  0  0  0  0  0  0
   12.1640   13.8690   22.8050 C   0  0  0  0  0  0  0  0  0  0  0  0
   11.8950   15.1180   22.4180 C   0  0  0  0  0  0  0  0  0  0  0  0
   10.7380   15.7610   22.6710 N   0  0  0  0  0  0  0  0  0  0  0  0
    9.8400   15.0120   23.3470 C   0  0  0  0  0  0  0  0  0  0  0  0
    8.6600   15.5650   23.6340 F   0  0  0  0  0  0  0  0  0  0  0  0
    8.2440   13.7060   25.2860 C   0  0  0  0  0  0  0  0  0  0  0  0
    7.2350   13.0210   25.9810 C   0  0  0  0  0  0  0  0  0  0  0  0
    7.0720   11.6500   25.8190 C   0  0  0  0  0  0  0  0  0  0  0  0
    7.9280   10.9700   24.9500 C   0  0  0  0  0  0  0  0  0  0  0  0
    7.7600    9.6110   24.7890 C   0  0  0  0  0  0  0  0  0  0  0  0
    7.8360    7.2730   22.8040 H   0  0  0  0  0  0  0  0  0  0  0  0
    9.5680    7.2550   23.1050 H   0  0  0  0  0  0  0  0  0  0  0  0
    8.4570    6.8910   24.4390 H   0  0  0  0  0  0  0  0  0  0  0  0
   10.2530    9.2120   22.5540 H   0  0  0  0  0  0  0  0  0  0  0  0
   11.4330   12.1610   23.8100 H   0  0  0  0  0  0  0  0  0  0  0  0
   13.1100   13.4400   22.5720 H   0  0  0  0  0  0  0  0  0  0  0  0
   12.6540   15.6700   21.8670 H   0  0  0  0  0  0  0  0  0  0  0  0
    8.3230   14.7840   25.4570 H   0  0  0  0  0  0  0  0  0  0  0  0
    6.5970   13.5970   26.6430 H   0  0  0  0  0  0  0  0  0  0  0  0
    6.2920   11.1200   26.3580 H   0  0  0  0  0  0  0  0  0  0  0  0
    6.9840    9.1090   25.3420 H   0  0  0  0  0  0  0  0  0  0  0  0
  1  2  1  0
  2  3  2  0
  3  4  1  0
  4  5  2  0
  5  6  1  0
  6  7  1  0
  7  8  2  0
  8  9  1  0
  9 10  2  0
 10 11  1  0
 11 12  2  0
 12 13  1  0
  6 14  2  0
 14 15  1  0
 15 16  2  0
 16 17  1  0
 17 18  2  0
 18  2  1  0
 17  5  1  0
 12  7  1  0
  1 19  1  0
  1 20  1  0
  1 21  1  0
  3 22  1  0
  8 23  1  0
  9 24  1  0
 10 25  1  0
 14 26  1  0
 15 27  1  0
 16 28  1  0
 18 29  1  0
A    1
 C1 
A    2
 C2 
A    3
 C3 
A    4
 N1 
A    5
 C4 
A    6
 C5 
A    7
 C6 
A    8
 C7 
A    9
 C8 
A   10
 C9 
A   11
 N2 
A   12
 C10
A   13
 F1 
A   14
 C11
A   15
 C12
A   16
 C13
A   17
 C14
A   18
 C15
A   19
 H1 
A   20
 H2 
A   21
 H3 
A   22
 H4 
A   23
 H5 
A   24
 H6 
A   25
 H7 
A   26
 H8 
A   27
 H9 
A   28
 H10
A   29
 H11
M  END
>  <ref_pdb>  (192) 
x0554_0A

>  <ref_mols>  (192) 
x0451_0A,x0554_0A,x0556_0A,x0566_0A,x0310_0A,x0416_0A

>  <original SMILES>  (192) 
Cc1cnc2c(-c3cccnc3F)cccc2c1

>  <rationale>  (192) 
info cluster #14 (rank 10); hbond:S87; hydroph_interaction:Y89+D109+V124; 

>  <cluster_rank>  (192) 
10

>  <N_interactions>  (192) 
4

>  <N_interactions_lost>  (192) 
0

>  <∆∆G>  (192) 
-6.864482

>  <comRMSD>  (192) 
0.685368

>  <N_rotatable_bonds>  (192) 
2

>  <N_unconstrained_atoms>  (192) 
0

>  <N_constrained_atoms>  (192) 
18

$$$$
PV_003330515721
     RDKit          3D

 26 28  0  0  0  0  0  0  0  0999 V2000
   11.2610   12.5740   22.7950 C   0  0  0  0  0  0  0  0  0  0  0  0
   11.3190   14.0640   22.6610 C   0  0  0  0  0  0  0  0  0  0  0  0
   10.4090   15.0120   23.1860 C   0  0  0  0  0  0  0  0  0  0  0  0
   11.4330   15.8930   22.5430 O   0  0  0  0  0  0  0  0  0  0  0  0
   12.2960   14.9040   21.9820 C   0  0  0  0  0  0  0  0  0  0  0  0
   10.2710   11.7610   23.4490 C   0  0  0  0  0  0  0  0  0  0  0  0
   10.3670   10.3760   23.3170 C   0  0  0  0  0  0  0  0  0  0  0  0
    9.3980    9.5530   23.9880 C   0  0  0  0  0  0  0  0  0  0  0  0
    8.3650   10.2650   24.7720 C   0  0  0  0  0  0  0  0  0  0  0  0
    7.3760    9.5090   25.4970 C   0  0  0  0  0  0  0  0  0  0  0  0
    6.3360   10.1930   26.2660 C   0  0  0  0  0  0  0  0  0  0  0  0
    6.3870   11.5730   26.2480 C   0  0  0  0  0  0  0  0  0  0  0  0
    7.3300   12.2830   25.5770 N   0  0  0  0  0  0  0  0  0  0  0  0
    8.2890   11.6440   24.8630 C   0  0  0  0  0  0  0  0  0  0  0  0
    9.2470   12.3670   24.1980 C   0  0  0  0  0  0  0  0  0  0  0  0
   12.1060   12.0770   22.3230 H   0  0  0  0  0  0  0  0  0  0  0  0
   10.3720   15.1440   24.2720 H   0  0  0  0  0  0  0  0  0  0  0  0
    9.4190   15.1300   22.7460 H   0  0  0  0  0  0  0  0  0  0  0  0
   13.2950   14.9450   22.3810 H   0  0  0  0  0  0  0  0  0  0  0  0
   12.3010   14.9220   20.8900 H   0  0  0  0  0  0  0  0  0  0  0  0
   11.1540    9.9170   22.7270 H   0  0  0  0  0  0  0  0  0  0  0  0
    9.4590    8.4740   23.9070 H   0  0  0  0  0  0  0  0  0  0  0  0
    7.4580    8.4570   25.4430 H   0  0  0  0  0  0  0  0  0  0  0  0
    5.5750    9.6510   26.8180 H   0  0  0  0  0  0  0  0  0  0  0  0
    5.6560   12.1660   26.7890 H   0  0  0  0  0  0  0  0  0  0  0  0
    9.2110   13.4500   24.2580 H   0  0  0  0  0  0  0  0  0  0  0  0
  1  2  2  3
  2  3  1  0
  3  4  1  0
  4  5  1  0
  1  6  1  0
  6  7  2  0
  7  8  1  0
  8  9  2  0
  9 10  1  0
 10 11  2  0
 11 12  1  0
 12 13  2  0
 13 14  1  0
 14 15  2  0
  5  2  1  0
 15  6  1  0
 14  9  1  0
  1 16  1  0
  3 17  1  0
  3 18  1  0
  5 19  1  0
  5 20  1  0
  7 21  1  0
  8 22  1  0
 10 23  1  0
 11 24  1  0
 12 25  1  0
 15 26  1  0
A    1
 C1 
A    2
 C2 
A    3
 C3 
A    4
 O1 
A    5
 C4 
A    6
 C5 
A    7
 C6 
A    8
 C7 
A    9
 C8 
A   10
 C9 
A   11
 C10
A   12
 C11
A   13
 N1 
A   14
 C12
A   15
 C13
A   16
 H1 
A   17
 H2 
A   18
 H3 
A   19
 H4 
A   20
 H5 
A   21
 H6 
A   22
 H7 
A   23
 H8 
A   24
 H9 
A   25
 H10
A   26
 H11
M  END
>  <ref_pdb>  (193) 
x0554_0A

>  <ref_mols>  (193) 
x0451_0A,x0554_0A,x0556_0A,x0566_0A,x0310_0A,x0416_0A

>  <original SMILES>  (193) 
C(=C1COC1)c1ccc2cccnc2c1

>  <rationale>  (193) 
info cluster #2 (rank 10); hbond:S87; 

>  <cluster_rank>  (193) 
10

>  <N_interactions>  (193) 
1

>  <N_interactions_lost>  (193) 
0

>  <∆∆G>  (193) 
-6.019514

>  <comRMSD>  (193) 
0.799842

>  <N_rotatable_bonds>  (193) 
1

>  <N_unconstrained_atoms>  (193) 
0

>  <N_constrained_atoms>  (193) 
16

$$$$
Z50129847
     RDKit          3D

 25 27  0  0  0  0  0  0  0  0999 V2000
    8.9070    9.6760   24.1120 Cl  0  0  0  0  0  0  0  0  0  0  0  0
    7.7650   10.5670   25.0610 C   0  0  0  0  0  0  0  0  0  0  0  0
    6.8630    9.7750   25.8450 C   0  0  0  0  0  0  0  0  0  0  0  0
    5.9110   10.3620   26.6340 C   0  0  0  0  0  0  0  0  0  0  0  0
    5.8620   11.8930   26.6410 C   0  0  0  0  0  0  0  0  0  0  0  0
    6.7530   12.6450   25.8690 C   0  0  0  0  0  0  0  0  0  0  0  0
    7.7070   11.9460   25.0770 C   0  0  0  0  0  0  0  0  0  0  0  0
    8.7020   12.6260   24.2210 C   0  0  0  0  0  0  0  0  0  0  0  0
    9.9920   12.3960   24.2360 N   0  0  0  0  0  0  0  0  0  0  0  0
   10.5300   13.2180   23.3080 C   0  0  0  0  0  0  0  0  0  0  0  0
   11.8370   13.4020   22.9200 C   0  0  0  0  0  0  0  0  0  0  0  0
   12.1310   14.3120   21.9320 C   0  0  0  0  0  0  0  0  0  0  0  0
   11.1550   15.0430   21.3220 C   0  0  0  0  0  0  0  0  0  0  0  0
    9.8370   14.8840   21.7000 C   0  0  0  0  0  0  0  0  0  0  0  0
    9.5430   13.9720   22.6930 C   0  0  0  0  0  0  0  0  0  0  0  0
    8.3970   13.5800   23.2930 N   0  0  0  0  0  0  0  0  0  0  0  0
    6.9520    8.7330   25.7980 H   0  0  0  0  0  0  0  0  0  0  0  0
    5.2240    9.7640   27.2290 H   0  0  0  0  0  0  0  0  0  0  0  0
    5.1210   12.4000   27.2550 H   0  0  0  0  0  0  0  0  0  0  0  0
    6.7170   13.7260   25.8730 H   0  0  0  0  0  0  0  0  0  0  0  0
   12.6270   12.8370   23.3950 H   0  0  0  0  0  0  0  0  0  0  0  0
   13.1360   14.4670   21.6260 H   0  0  0  0  0  0  0  0  0  0  0  0
   11.4170   15.7550   20.5400 H   0  0  0  0  0  0  0  0  0  0  0  0
    9.0570   15.4690   21.2220 H   0  0  0  0  0  0  0  0  0  0  0  0
    7.4780   13.9370   23.0820 H   0  0  0  0  0  0  0  0  0  0  0  0
  1  2  1  0
  2  3  2  0
  3  4  1  0
  4  5  2  0
  5  6  1  0
  6  7  2  0
  7  8  1  0
  8  9  2  0
  9 10  1  0
 10 11  2  0
 11 12  1  0
 12 13  2  0
 13 14  1  0
 14 15  2  0
 15 16  1  0
  7  2  1  0
 16  8  1  0
 15 10  1  0
  3 17  1  0
  4 18  1  0
  5 19  1  0
  6 20  1  0
 11 21  1  0
 12 22  1  0
 13 23  1  0
 14 24  1  0
 16 25  1  0
A    1
CL1 
A    2
 C1 
A    3
 C2 
A    4
 C3 
A    5
 C4 
A    6
 C5 
A    7
 C6 
A    8
 C7 
A    9
 N1 
A   10
 C8 
A   11
 C9 
A   12
 C10
A   13
 C11
A   14
 C12
A   15
 C13
A   16
 N2 
A   17
 H1 
A   18
 H2 
A   19
 H3 
A   20
 H4 
A   21
 H5 
A   22
 H6 
A   23
 H7 
A   24
 H8 
A   25
 H9 
M  END
>  <ref_pdb>  (194) 
x0554_0A

>  <ref_mols>  (194) 
x0451_0A,x0554_0A,x0556_0A,x0566_0A,x0310_0A,x0416_0A

>  <original SMILES>  (194) 
Clc1ccccc1-c1nc2ccccc2[nH]1

>  <rationale>  (194) 
info cluster #10 (rank 10); hbond:G127; hydroph_interaction:Y89; 

>  <cluster_rank>  (194) 
10

>  <N_interactions>  (194) 
3

>  <N_interactions_lost>  (194) 
0

>  <∆∆G>  (194) 
-5.313514

>  <comRMSD>  (194) 
0.989521

>  <N_rotatable_bonds>  (194) 
1

>  <N_unconstrained_atoms>  (194) 
0

>  <N_constrained_atoms>  (194) 
16

$$$$
Z667944396
     RDKit          3D

 31 32  0  0  0  0  0  0  0  0999 V2000
    8.5000    8.0260   23.7360 C   0  0  0  0  0  0  0  0  0  0  0  0
    8.5350    9.2960   24.2410 C   0  0  0  0  0  0  0  0  0  0  0  0
    9.7140    9.9300   23.9410 C   0  0  0  0  0  0  0  0  0  0  0  0
    9.9550   11.2310   24.3600 C   0  0  0  0  0  0  0  0  0  0  0  0
    9.0480   11.9380   25.0800 C   0  0  0  0  0  0  0  0  0  0  0  0
    9.3880   13.2950   25.4520 C   0  0  0  0  0  0  0  0  0  0  0  0
    9.9130   13.7680   24.1800 N   0  0  0  0  0  0  0  0  0  0  0  0
   11.2280   14.0390   23.9790 N   0  0  0  0  0  0  0  0  0  0  0  0
   11.2300   14.4120   22.6530 C   0  0  0  0  0  0  0  0  0  0  0  0
   12.4460   14.7540   22.1080 C   0  0  0  0  0  0  0  0  0  0  0  0
    9.9750   14.3810   22.0570 C   0  0  0  0  0  0  0  0  0  0  0  0
    9.1440   13.9620   23.0720 C   0  0  0  0  0  0  0  0  0  0  0  0
    7.7870   13.7500   23.0560 C   0  0  0  0  0  0  0  0  0  0  0  0
    7.8250   11.3150   25.4080 C   0  0  0  0  0  0  0  0  0  0  0  0
    7.5630    9.9930   24.9910 C   0  0  0  0  0  0  0  0  0  0  0  0
    7.7530    7.9030   22.9560 H   0  0  0  0  0  0  0  0  0  0  0  0
    8.3660    7.2930   24.5300 H   0  0  0  0  0  0  0  0  0  0  0  0
    9.4580    7.7890   23.2650 H   0  0  0  0  0  0  0  0  0  0  0  0
   10.4530    9.3950   23.3700 H   0  0  0  0  0  0  0  0  0  0  0  0
   10.8990   11.7040   24.1030 H   0  0  0  0  0  0  0  0  0  0  0  0
    8.4950   13.8700   25.7330 H   0  0  0  0  0  0  0  0  0  0  0  0
   10.1390   13.4760   26.2180 H   0  0  0  0  0  0  0  0  0  0  0  0
   12.6090   15.8200   21.9770 H   0  0  0  0  0  0  0  0  0  0  0  0
   12.7250   14.3380   21.1540 H   0  0  0  0  0  0  0  0  0  0  0  0
   13.2010   14.4240   22.8170 H   0  0  0  0  0  0  0  0  0  0  0  0
    9.7090   14.6270   21.0380 H   0  0  0  0  0  0  0  0  0  0  0  0
    7.2820   14.4360   22.3750 H   0  0  0  0  0  0  0  0  0  0  0  0
    7.5610   12.7200   22.7740 H   0  0  0  0  0  0  0  0  0  0  0  0
    7.3630   13.9100   24.0510 H   0  0  0  0  0  0  0  0  0  0  0  0
    7.0710   11.8500   25.9830 H   0  0  0  0  0  0  0  0  0  0  0  0
    6.6130    9.5440   25.2590 H   0  0  0  0  0  0  0  0  0  0  0  0
  1  2  1  0
  2  3  2  0
  3  4  1  0
  4  5  2  0
  5  6  1  0
  6  7  1  0
  7  8  1  0
  8  9  2  0
  9 10  1  0
  9 11  1  0
 11 12  2  0
 12 13  1  0
  5 14  1  0
 14 15  2  0
 15  2  1  0
 12  7  1  0
  1 16  1  0
  1 17  1  0
  1 18  1  0
  3 19  1  0
  4 20  1  0
  6 21  1  0
  6 22  1  0
 10 23  1  0
 10 24  1  0
 10 25  1  0
 11 26  1  0
 13 27  1  0
 13 28  1  0
 13 29  1  0
 14 30  1  0
 15 31  1  0
A    1
 C1 
A    2
 C2 
A    3
 C3 
A    4
 C4 
A    5
 C5 
A    6
 C6 
A    7
 N1 
A    8
 N2 
A    9
 C7 
A   10
 C8 
A   11
 C9 
A   12
 C10
A   13
 C11
A   14
 C12
A   15
 C13
A   16
 H1 
A   17
 H2 
A   18
 H3 
A   19
 H4 
A   20
 H5 
A   21
 H6 
A   22
 H7 
A   23
 H8 
A   24
 H9 
A   25
 H10
A   26
 H11
A   27
 H12
A   28
 H13
A   29
 H14
A   30
 H15
A   31
 H16
M  END
>  <ref_pdb>  (195) 
x0554_0A

>  <ref_mols>  (195) 
x0451_0A,x0554_0A,x0556_0A,x0566_0A,x0310_0A,x0416_0A

>  <original SMILES>  (195) 
Cc1ccc(Cn2nc(C)cc2C)cc1

>  <rationale>  (195) 
info cluster #0 (rank 10); hydroph_interaction:Y89+D109; 

>  <cluster_rank>  (195) 
10

>  <N_interactions>  (195) 
2

>  <N_interactions_lost>  (195) 
0

>  <∆∆G>  (195) 
-9.843968

>  <comRMSD>  (195) 
0.721569

>  <N_rotatable_bonds>  (195) 
5

>  <N_unconstrained_atoms>  (195) 
0

>  <N_constrained_atoms>  (195) 
15

$$$$
Z64080283
     RDKit          3D

 28 30  0  0  0  0  0  0  0  0999 V2000
   11.3050   12.3240   24.1220 O   0  0  0  0  0  0  0  0  0  0  0  0
   10.4660   12.9080   23.4800 C   0  0  0  0  0  0  0  0  0  0  0  0
    9.0540   12.7230   23.5030 N   0  0  0  0  0  0  0  0  0  0  0  0
    8.7080   11.4420   24.0220 C   0  0  0  0  0  0  0  0  0  0  0  0
    9.3250   10.2480   23.4860 C   0  0  0  0  0  0  0  0  0  0  0  0
    9.1170    8.9960   23.8590 C   0  0  0  0  0  0  0  0  0  0  0  0
    8.1760    8.9730   24.8860 C   0  0  0  0  0  0  0  0  0  0  0  0
    7.4870   10.0480   25.5010 C   0  0  0  0  0  0  0  0  0  0  0  0
    6.5820    9.8930   26.4900 N   0  0  0  0  0  0  0  0  0  0  0  0
    5.8750   10.9830   27.1260 C   0  0  0  0  0  0  0  0  0  0  0  0
    6.1500   12.2650   26.6970 C   0  0  0  0  0  0  0  0  0  0  0  0
    7.1310   12.4430   25.6220 C   0  0  0  0  0  0  0  0  0  0  0  0
    7.7790   11.3370   25.0420 C   0  0  0  0  0  0  0  0  0  0  0  0
   10.7590   13.9280   22.5510 C   0  0  0  0  0  0  0  0  0  0  0  0
   11.8760   14.2240   21.8540 C   0  0  0  0  0  0  0  0  0  0  0  0
   11.6100   15.3460   21.0720 C   0  0  0  0  0  0  0  0  0  0  0  0
   10.3110   15.7080   21.3170 C   0  0  0  0  0  0  0  0  0  0  0  0
    9.4540   17.0170   20.6150 Cl  0  0  0  0  0  0  0  0  0  0  0  0
    9.7720   14.8400   22.2320 O   0  0  0  0  0  0  0  0  0  0  0  0
    8.4820   13.4810   23.8510 H   0  0  0  0  0  0  0  0  0  0  0  0
   10.0390   10.3570   22.6900 H   0  0  0  0  0  0  0  0  0  0  0  0
    9.6060    8.1260   23.4290 H   0  0  0  0  0  0  0  0  0  0  0  0
    7.9660    8.0040   25.2350 H   0  0  0  0  0  0  0  0  0  0  0  0
    5.1650   10.7500   27.9130 H   0  0  0  0  0  0  0  0  0  0  0  0
    5.6480   13.1220   27.1440 H   0  0  0  0  0  0  0  0  0  0  0  0
    7.3800   13.4340   25.2470 H   0  0  0  0  0  0  0  0  0  0  0  0
   12.8010   13.6820   21.9010 H   0  0  0  0  0  0  0  0  0  0  0  0
   12.2950   15.8370   20.3980 H   0  0  0  0  0  0  0  0  0  0  0  0
  1  2  2  0
  2  3  1  0
  3  4  1  0
  4  5  2  0
  5  6  1  0
  6  7  2  0
  7  8  1  0
  8  9  2  0
  9 10  1  0
 10 11  2  0
 11 12  1  0
 12 13  2  0
  2 14  1  0
 14 15  2  0
 15 16  1  0
 16 17  2  0
 17 18  1  0
 17 19  1  0
 13  4  1  0
 13  8  1  0
 19 14  1  0
  3 20  1  0
  5 21  1  0
  6 22  1  0
  7 23  1  0
 10 24  1  0
 11 25  1  0
 12 26  1  0
 15 27  1  0
 16 28  1  0
A    1
 O1 
A    2
 C1 
A    3
 N1 
A    4
 C2 
A    5
 C3 
A    6
 C4 
A    7
 C5 
A    8
 C6 
A    9
 N2 
A   10
 C7 
A   11
 C8 
A   12
 C9 
A   13
 C10
A   14
 C11
A   15
 C12
A   16
 C13
A   17
 C14
A   18
CL1 
A   19
 O2 
A   20
 H1 
A   21
 H2 
A   22
 H3 
A   23
 H4 
A   24
 H5 
A   25
 H6 
A   26
 H7 
A   27
 H8 
A   28
 H9 
M  END
>  <ref_pdb>  (196) 
x0554_0A

>  <ref_mols>  (196) 
x0451_0A,x0554_0A,x0556_0A,x0566_0A,x0310_0A,x0416_0A

>  <original SMILES>  (196) 
O=C(Nc1cccc2ncccc12)c1ccc(Cl)o1

>  <rationale>  (196) 
info cluster #1 (rank 10); hbond:T126+G127; hydroph_interaction:Y90; 

>  <cluster_rank>  (196) 
10

>  <N_interactions>  (196) 
3

>  <N_interactions_lost>  (196) 
0

>  <∆∆G>  (196) 
-6.164457

>  <comRMSD>  (196) 
0.711864

>  <N_rotatable_bonds>  (196) 
2

>  <N_unconstrained_atoms>  (196) 
1

>  <N_constrained_atoms>  (196) 
18

$$$$
Z44301065
     RDKit          3D

 28 30  0  0  0  0  0  0  0  0999 V2000
    8.1740   13.8700   24.9090 O   0  0  0  0  0  0  0  0  0  0  0  0
    9.1620   13.4650   24.3080 C   0  0  0  0  0  0  0  0  0  0  0  0
   10.0720   12.3460   24.6040 C   0  0  0  0  0  0  0  0  0  0  0  0
    9.8360   11.1310   25.1080 C   0  0  0  0  0  0  0  0  0  0  0  0
    8.5150   10.9590   25.4480 C   0  0  0  0  0  0  0  0  0  0  0  0
    7.8390   11.9540   26.3880 C   0  0  0  0  0  0  0  0  0  0  0  0
    6.4200   12.0090   26.9330 C   0  0  0  0  0  0  0  0  0  0  0  0
    5.8490   10.7780   26.2660 C   0  0  0  0  0  0  0  0  0  0  0  0
    6.5380    9.9240   25.4130 C   0  0  0  0  0  0  0  0  0  0  0  0
    7.8360    9.9650   24.9850 C   0  0  0  0  0  0  0  0  0  0  0  0
    8.7230    8.7430   23.8140 Br  0  0  0  0  0  0  0  0  0  0  0  0
   11.4000   12.7920   24.2110 C   0  0  0  0  0  0  0  0  0  0  0  0
   12.4710   12.5730   24.7420 O   0  0  0  0  0  0  0  0  0  0  0  0
   11.0990   13.5250   23.0920 C   0  0  0  0  0  0  0  0  0  0  0  0
   11.9790   13.8080   22.0780 C   0  0  0  0  0  0  0  0  0  0  0  0
   11.5270   14.5560   20.9960 C   0  0  0  0  0  0  0  0  0  0  0  0
   10.1970   15.0010   20.9640 C   0  0  0  0  0  0  0  0  0  0  0  0
    9.3170   14.7030   22.0130 C   0  0  0  0  0  0  0  0  0  0  0  0
    9.7890   13.9520   23.0850 C   0  0  0  0  0  0  0  0  0  0  0  0
   10.6010   10.3740   25.2460 H   0  0  0  0  0  0  0  0  0  0  0  0
    8.4750   12.7640   26.7330 H   0  0  0  0  0  0  0  0  0  0  0  0
    5.9540   12.7250   27.6030 H   0  0  0  0  0  0  0  0  0  0  0  0
    4.8100   10.5400   26.4660 H   0  0  0  0  0  0  0  0  0  0  0  0
    5.9320    9.1780   25.0860 H   0  0  0  0  0  0  0  0  0  0  0  0
   12.9760   13.4490   22.1400 H   0  0  0  0  0  0  0  0  0  0  0  0
   12.2090   14.7910   20.1780 H   0  0  0  0  0  0  0  0  0  0  0  0
    9.8490   15.5850   20.1130 H   0  0  0  0  0  0  0  0  0  0  0  0
    8.2840   15.0470   21.9940 H   0  0  0  0  0  0  0  0  0  0  0  0
  1  2  2  0
  2  3  1  0
  3  4  2  3
  4  5  1  0
  5  6  2  0
  6  7  1  0
  7  8  2  0
  8  9  1  0
  9 10  2  0
 10 11  1  0
  3 12  1  0
 12 13  2  0
 12 14  1  0
 14 15  2  0
 15 16  1  0
 16 17  2  0
 17 18  1  0
 18 19  2  0
 19  2  1  0
 10  5  1  0
 19 14  1  0
  4 20  1  0
  6 21  1  0
  7 22  1  0
  8 23  1  0
  9 24  1  0
 15 25  1  0
 16 26  1  0
 17 27  1  0
 18 28  1  0
A    1
 O1 
A    2
 C1 
A    3
 C2 
A    4
 C3 
A    5
 C4 
A    6
 C5 
A    7
 C6 
A    8
 C7 
A    9
 C8 
A   10
 C9 
A   11
BR1 
A   12
 C10
A   13
 O2 
A   14
 C11
A   15
 C12
A   16
 C13
A   17
 C14
A   18
 C15
A   19
 C16
A   20
 H1 
A   21
 H2 
A   22
 H3 
A   23
 H4 
A   24
 H5 
A   25
 H6 
A   26
 H7 
A   27
 H8 
A   28
 H9 
M  END
>  <ref_pdb>  (197) 
x0554_0A

>  <ref_mols>  (197) 
x0451_0A,x0554_0A,x0556_0A,x0566_0A,x0310_0A,x0416_0A

>  <original SMILES>  (197) 
O=C1C(=Cc2ccccc2Br)C(=O)c2ccccc21

>  <rationale>  (197) 
info cluster #18 (rank 10); hydroph_interaction:P107; 

>  <cluster_rank>  (197) 
10

>  <N_interactions>  (197) 
1

>  <N_interactions_lost>  (197) 
0

>  <∆∆G>  (197) 
-5.915231

>  <comRMSD>  (197) 
0.741339

>  <N_rotatable_bonds>  (197) 
1

>  <N_unconstrained_atoms>  (197) 
1

>  <N_constrained_atoms>  (197) 
18

$$$$
PV_002817886232
     RDKit          3D

 28 30  0  0  0  0  0  0  0  0999 V2000
   12.4170   15.7230   21.5800 C   0  0  0  0  0  0  0  0  0  0  0  0
   11.6430   15.0030   22.4570 C   0  0  0  0  0  0  0  0  0  0  0  0
   11.4300   13.6870   22.3910 C   0  0  0  0  0  0  0  0  0  0  0  0
   10.5950   13.2680   23.3780 C   0  0  0  0  0  0  0  0  0  0  0  0
   10.1360   11.9290   23.5620 C   0  0  0  0  0  0  0  0  0  0  0  0
   10.5550   10.7040   23.1420 C   0  0  0  0  0  0  0  0  0  0  0  0
   10.0000    9.3970   23.3820 C   0  0  0  0  0  0  0  0  0  0  0  0
    8.8290    9.4140   24.1880 C   0  0  0  0  0  0  0  0  0  0  0  0
    8.3890   10.6840   24.6250 C   0  0  0  0  0  0  0  0  0  0  0  0
    7.2450   10.7500   25.4150 N   0  0  0  0  0  0  0  0  0  0  0  0
    6.6130    9.7070   25.9210 C   0  0  0  0  0  0  0  0  0  0  0  0
    5.4890   10.2500   26.6580 C   0  0  0  0  0  0  0  0  0  0  0  0
    5.5460   11.5910   26.5370 N   0  0  0  0  0  0  0  0  0  0  0  0
    6.6110   11.8920   25.7860 N   0  0  0  0  0  0  0  0  0  0  0  0
    9.0050   11.8760   24.3310 C   0  0  0  0  0  0  0  0  0  0  0  0
   10.2660   14.3370   24.1390 N   0  0  0  0  0  0  0  0  0  0  0  0
   10.9150   15.3820   23.5550 N   0  0  0  0  0  0  0  0  0  0  0  0
   12.0340   16.7380   21.5420 H   0  0  0  0  0  0  0  0  0  0  0  0
   12.3720   15.2780   20.5830 H   0  0  0  0  0  0  0  0  0  0  0  0
   13.4640   15.7490   21.8710 H   0  0  0  0  0  0  0  0  0  0  0  0
   11.8730   13.0760   21.6350 H   0  0  0  0  0  0  0  0  0  0  0  0
   11.4470   10.8000   22.5330 H   0  0  0  0  0  0  0  0  0  0  0  0
   10.4310    8.4870   22.9860 H   0  0  0  0  0  0  0  0  0  0  0  0
    8.3190    8.4870   24.4390 H   0  0  0  0  0  0  0  0  0  0  0  0
    6.9710    8.7320   25.7470 H   0  0  0  0  0  0  0  0  0  0  0  0
    4.7220    9.7390   27.2210 H   0  0  0  0  0  0  0  0  0  0  0  0
    8.6040   12.8140   24.7040 H   0  0  0  0  0  0  0  0  0  0  0  0
   10.8090   16.3080   23.9570 H   0  0  0  0  0  0  0  0  0  0  0  0
  1  2  1  0
  2  3  2  0
  3  4  1  0
  4  5  1  0
  5  6  2  0
  6  7  1  0
  7  8  2  0
  8  9  1  0
  9 10  1  0
 10 11  1  0
 11 12  2  0
 12 13  1  0
 13 14  2  0
  9 15  2  0
  4 16  2  0
 16 17  1  0
 17  2  1  0
 15  5  1  0
 14 10  1  0
  1 18  1  0
  1 19  1  0
  1 20  1  0
  3 21  1  0
  6 22  1  0
  7 23  1  0
  8 24  1  0
 11 25  1  0
 12 26  1  0
 15 27  1  0
 17 28  1  0
A    1
 C1 
A    2
 C2 
A    3
 C3 
A    4
 C4 
A    5
 C5 
A    6
 C6 
A    7
 C7 
A    8
 C8 
A    9
 C9 
A   10
 N1 
A   11
 C10
A   12
 C11
A   13
 N2 
A   14
 N3 
A   15
 C12
A   16
 N4 
A   17
 N5 
A   18
 H1 
A   19
 H2 
A   20
 H3 
A   21
 H4 
A   22
 H5 
A   23
 H6 
A   24
 H7 
A   25
 H8 
A   26
 H9 
A   27
 H10
A   28
 H11
M  END
>  <ref_pdb>  (198) 
x0554_0A

>  <ref_mols>  (198) 
x0451_0A,x0554_0A,x0556_0A,x0566_0A,x0310_0A,x0416_0A

>  <original SMILES>  (198) 
Cc1cc(-c2cccc(-n3ccnn3)c2)n[nH]1

>  <rationale>  (198) 
info cluster #19 (rank 10); hbond:S87; hydroph_interaction:Y89+Y90; 

>  <cluster_rank>  (198) 
10

>  <N_interactions>  (198) 
4

>  <N_interactions_lost>  (198) 
0

>  <∆∆G>  (198) 
-6.953805

>  <comRMSD>  (198) 
0.578539

>  <N_rotatable_bonds>  (198) 
3

>  <N_unconstrained_atoms>  (198) 
0

>  <N_constrained_atoms>  (198) 
17

$$$$
PV_004821197059
     RDKit          3D

 28 30  0  0  0  0  0  0  0  0999 V2000
    7.0020   12.5460   25.2310 C   0  0  0  0  0  0  0  0  0  0  0  0
    7.7270   12.9570   24.0030 C   0  0  0  0  0  0  0  0  0  0  0  0
    9.0310   12.6210   23.7020 C   0  0  0  0  0  0  0  0  0  0  0  0
    9.9440   13.6440   23.4750 C   0  0  0  0  0  0  0  0  0  0  0  0
   11.2510   13.3500   23.1510 C   0  0  0  0  0  0  0  0  0  0  0  0
   11.6520   12.0160   23.0480 C   0  0  0  0  0  0  0  0  0  0  0  0
   10.7070   11.0120   23.2800 C   0  0  0  0  0  0  0  0  0  0  0  0
    9.4040   11.2700   23.6120 C   0  0  0  0  0  0  0  0  0  0  0  0
    8.7700    9.9720   23.7720 C   0  0  0  0  0  0  0  0  0  0  0  0
    9.6710    8.9630   23.5290 C   0  0  0  0  0  0  0  0  0  0  0  0
   10.8630    9.5910   23.2270 N   0  0  0  0  0  0  0  0  0  0  0  0
    6.1540   12.3180   26.3310 C   0  0  0  0  0  0  0  0  0  0  0  0
    5.2780   13.4610   26.7180 C   0  0  0  0  0  0  0  0  0  0  0  0
    4.4270   13.1910   27.8450 C   0  0  0  0  0  0  0  0  0  0  0  0
    4.3740   12.0070   28.5490 C   0  0  0  0  0  0  0  0  0  0  0  0
    5.2330   10.9750   28.1150 C   0  0  0  0  0  0  0  0  0  0  0  0
    6.1120   11.1170   27.0230 C   0  0  0  0  0  0  0  0  0  0  0  0
    9.6300   14.6830   23.5510 H   0  0  0  0  0  0  0  0  0  0  0  0
   11.9670   14.1500   22.9730 H   0  0  0  0  0  0  0  0  0  0  0  0
   12.6780   11.8030   22.7900 H   0  0  0  0  0  0  0  0  0  0  0  0
    7.7360    9.8230   24.0390 H   0  0  0  0  0  0  0  0  0  0  0  0
    9.5780    7.8900   23.5430 H   0  0  0  0  0  0  0  0  0  0  0  0
   11.7200    9.1180   22.9990 H   0  0  0  0  0  0  0  0  0  0  0  0
    5.2780   14.4150   26.2000 H   0  0  0  0  0  0  0  0  0  0  0  0
    3.7700   13.9910   28.1690 H   0  0  0  0  0  0  0  0  0  0  0  0
    3.7030   11.8780   29.3940 H   0  0  0  0  0  0  0  0  0  0  0  0
    5.2180   10.0230   28.6430 H   0  0  0  0  0  0  0  0  0  0  0  0
    6.7520   10.2890   26.7290 H   0  0  0  0  0  0  0  0  0  0  0  0
  1  2  3  0
  2  3  1  0
  3  4  2  0
  4  5  1  0
  5  6  2  0
  6  7  1  0
  7  8  2  0
  8  9  1  0
  9 10  2  0
 10 11  1  0
  1 12  1  0
 12 13  2  0
 13 14  1  0
 14 15  2  0
 15 16  1  0
 16 17  2  0
  8  3  1  0
 11  7  1  0
 17 12  1  0
  4 18  1  0
  5 19  1  0
  6 20  1  0
  9 21  1  0
 10 22  1  0
 11 23  1  0
 13 24  1  0
 14 25  1  0
 15 26  1  0
 16 27  1  0
 17 28  1  0
A    1
 C1 
A    2
 C2 
A    3
 C3 
A    4
 C4 
A    5
 C5 
A    6
 C6 
A    7
 C7 
A    8
 C8 
A    9
 C9 
A   10
 C10
A   11
 N1 
A   12
 C11
A   13
 C12
A   14
 C13
A   15
 C14
A   16
 C15
A   17
 C16
A   18
 H1 
A   19
 H2 
A   20
 H3 
A   21
 H4 
A   22
 H5 
A   23
 H6 
A   24
 H7 
A   25
 H8 
A   26
 H9 
A   27
 H10
A   28
 H11
M  END
>  <ref_pdb>  (199) 
x0554_0A

>  <ref_mols>  (199) 
x0451_0A,x0554_0A,x0556_0A,x0566_0A,x0310_0A,x0416_0A

>  <original SMILES>  (199) 
C(#Cc1cccc2[nH]ccc12)c1ccccc1

>  <rationale>  (199) 
info cluster #6 (rank 10); hbond:C110; 

>  <cluster_rank>  (199) 
10

>  <N_interactions>  (199) 
1

>  <N_interactions_lost>  (199) 
0

>  <∆∆G>  (199) 
-4.740314

>  <comRMSD>  (199) 
0.561092

>  <N_rotatable_bonds>  (199) 
0

>  <N_unconstrained_atoms>  (199) 
0

>  <N_constrained_atoms>  (199) 
17

$$$$
PV_002929940991
     RDKit          3D

 30 32  0  0  0  0  0  0  0  0999 V2000
    9.3020    9.3150   23.5780 C   0  0  0  0  0  0  0  0  0  0  0  0
    9.0750   10.5670   24.1170 C   0  0  0  0  0  0  0  0  0  0  0  0
    9.7690   11.6730   23.9130 C   0  0  0  0  0  0  0  0  0  0  0  0
    9.3370   12.9230   24.6160 C   0  0  0  0  0  0  0  0  0  0  0  0
   10.0720   13.9900   24.4220 N   0  0  0  0  0  0  0  0  0  0  0  0
   11.2370   13.6760   23.8530 C   0  0  0  0  0  0  0  0  0  0  0  0
   11.9650   12.7670   24.1810 O   0  0  0  0  0  0  0  0  0  0  0  0
   11.5680   14.4790   22.7760 C   0  0  0  0  0  0  0  0  0  0  0  0
   12.3110   14.2080   21.6880 C   0  0  0  0  0  0  0  0  0  0  0  0
   12.4170   15.2720   20.8450 C   0  0  0  0  0  0  0  0  0  0  0  0
   11.7710   16.3520   21.2430 N   0  0  0  0  0  0  0  0  0  0  0  0
   11.0280   16.0240   22.6740 S   0  0  0  0  0  0  0  0  0  0  0  0
    8.3090   13.0630   25.4190 N   0  0  0  0  0  0  0  0  0  0  0  0
    7.6390   11.9960   25.6090 C   0  0  0  0  0  0  0  0  0  0  0  0
    6.4640   12.0430   26.4910 C   0  0  0  0  0  0  0  0  0  0  0  0
    5.7520   10.8950   26.6950 C   0  0  0  0  0  0  0  0  0  0  0  0
    6.1550    9.7550   26.0880 C   0  0  0  0  0  0  0  0  0  0  0  0
    7.2510    9.6840   25.2660 C   0  0  0  0  0  0  0  0  0  0  0  0
    7.9860   10.7520   25.0000 C   0  0  0  0  0  0  0  0  0  0  0  0
    8.5140    8.5940   23.4000 H   0  0  0  0  0  0  0  0  0  0  0  0
   10.0340    8.8050   24.2120 H   0  0  0  0  0  0  0  0  0  0  0  0
    9.7860    9.4430   22.6050 H   0  0  0  0  0  0  0  0  0  0  0  0
   10.6200   11.6610   23.2670 H   0  0  0  0  0  0  0  0  0  0  0  0
   10.0460   14.6060   25.2290 H   0  0  0  0  0  0  0  0  0  0  0  0
   12.7650   13.2510   21.5210 H   0  0  0  0  0  0  0  0  0  0  0  0
   12.9780   15.2620   19.9120 H   0  0  0  0  0  0  0  0  0  0  0  0
    6.1770   12.9690   26.9620 H   0  0  0  0  0  0  0  0  0  0  0  0
    4.8840   10.9190   27.3370 H   0  0  0  0  0  0  0  0  0  0  0  0
    5.5780    8.9030   26.2770 H   0  0  0  0  0  0  0  0  0  0  0  0
    7.5710    8.7800   24.8060 H   0  0  0  0  0  0  0  0  0  0  0  0
  1  2  1  0
  2  3  2  0
  3  4  1  0
  4  5  1  0
  5  6  1  0
  6  7  2  0
  6  8  1  0
  8  9  2  0
  9 10  1  0
 10 11  2  0
 11 12  1  0
  4 13  2  0
 13 14  1  0
 14 15  2  0
 15 16  1  0
 16 17  2  0
 17 18  1  0
 18 19  2  0
 19  2  1  0
 12  8  1  0
 19 14  1  0
  1 20  1  0
  1 21  1  0
  1 22  1  0
  3 23  1  0
  5 24  1  0
  9 25  1  0
 10 26  1  0
 15 27  1  0
 16 28  1  0
 17 29  1  0
 18 30  1  0
A    1
 C1 
A    2
 C2 
A    3
 C3 
A    4
 C4 
A    5
 N1 
A    6
 C5 
A    7
 O1 
A    8
 C6 
A    9
 C7 
A   10
 C8 
A   11
 N2 
A   12
 S1 
A   13
 N3 
A   14
 C9 
A   15
 C10
A   16
 C11
A   17
 C12
A   18
 C13
A   19
 C14
A   20
 H1 
A   21
 H2 
A   22
 H3 
A   23
 H4 
A   24
 H5 
A   25
 H6 
A   26
 H7 
A   27
 H8 
A   28
 H9 
A   29
 H10
A   30
 H11
M  END
>  <ref_pdb>  (200) 
x0554_0A

>  <ref_mols>  (200) 
x0451_0A,x0554_0A,x0556_0A,x0566_0A,x0310_0A,x0416_0A

>  <original SMILES>  (200) 
Cc1cc(NC(=O)c2ccns2)nc2ccccc12

>  <rationale>  (200) 
info cluster #7 (rank 10); hbond:S87; pistack:Y89+H21; 

>  <cluster_rank>  (200) 
10

>  <N_interactions>  (200) 
3

>  <N_interactions_lost>  (200) 
0

>  <∆∆G>  (200) 
-7.408985

>  <comRMSD>  (200) 
0.961651

>  <N_rotatable_bonds>  (200) 
3

>  <N_unconstrained_atoms>  (200) 
0

>  <N_constrained_atoms>  (200) 
20

$$$$
