ver_1.2
     RDKit          3D

 14 15  0  0  0  0  0  0  0  0999 V2000
    3.1626   -1.1796    0.0819 C   0  0  0  0  0  0  0  0  0  0  0  0
    2.2054   -0.0896    0.0455 N   0  0  0  0  0  0  0  0  0  0  0  0
    2.4945    1.2245    0.0306 C   0  0  0  0  0  0  0  0  0  0  0  0
    1.3453    1.9525   -0.0039 N   0  0  0  0  0  0  0  0  0  0  0  0
    0.2984    1.0923   -0.0113 C   0  0  0  0  0  0  0  0  0  0  0  0
    0.8584   -0.1821    0.0200 C   0  0  0  0  0  0  0  0  0  0  0  0
    0.0361   -1.2683    0.0207 C   0  0  0  0  0  0  0  0  0  0  0  0
    0.5558   -2.4132    0.0492 O   0  0  0  0  0  0  0  0  0  0  0  0
   -1.2810   -1.0834   -0.0085 N   0  0  0  0  0  0  0  0  0  0  0  0
   -1.8093    0.1549   -0.0386 C   0  0  0  0  0  0  0  0  0  0  0  0
   -3.0791    0.2323   -0.0653 O   0  0  0  0  0  0  0  0  0  0  0  0
   -1.0381    1.2603   -0.0407 N   0  0  0  0  0  0  0  0  0  0  0  0
   -1.6258    2.5720   -0.0731 C   0  0  0  0  0  0  0  0  0  0  0  0
   -2.1232   -2.2724   -0.0066 C   0  0  0  0  0  0  0  0  0  0  0  0
  1  2  1  0
  2  3  1  0
  3  4  2  0
  4  5  1  0
  5  6  2  0
  6  7  1  0
  7  8  2  0
  7  9  1  0
  9 10  1  0
 10 11  2  0
 10 12  1  0
 12 13  1  0
  9 14  1  0
  6  2  1  0
 12  5  1  0
M  END
>  <ref_url>  (1) 
https://github.com/matteoferla/EV-A71-2A-elaborations

>  <submitter_name>  (1) 
Matteo Ferla

>  <submitter_email>  (1) 
matteo.ferla@stats.ox.ac.uk

>  <submitter_institution>  (1) 
University of Oxford

>  <generation_date>  (1) 
2023-11-14

>  <method>  (1) 
A71-ROCS-mixed

>  <rationale>  (1) 
rationale

>  <∆∆G>  (1) 
∆∆G

>  <comRMSD>  (1) 
comRMSD

>  <ROCS_TanimotoCombo>  (1) 
ROCS_TanimotoCombo

>  <ROCS_ShapeTanimoto>  (1) 
ROCS_ShapeTanimoto

>  <ROCS_ColorTanimoto>  (1) 
ROCS_ColorTanimoto

>  <distance>  (1) 
distance

$$$$
Z781034730
     RDKit          3D

 59 62  0  0  0  0  0  0  0  0999 V2000
   12.4860   15.6310   21.8240 C   0  0  0  0  0  0  0  0  0  0  0  0
   11.3860   16.2260   22.5150 O   0  0  0  0  0  0  0  0  0  0  0  0
   10.3170   15.4000   22.5260 C   0  0  0  0  0  0  0  0  0  0  0  0
    9.2000   15.5930   21.7340 C   0  0  0  0  0  0  0  0  0  0  0  0
    8.1530   14.6930   21.7960 C   0  0  0  0  0  0  0  0  0  0  0  0
    8.2080   13.5740   22.6300 C   0  0  0  0  0  0  0  0  0  0  0  0
    9.3210   13.3470   23.4320 C   0  0  0  0  0  0  0  0  0  0  0  0
    9.2770   12.0700   24.2780 C   0  0  1  0  0  0  0  0  0  0  0  0
    7.9140   11.5180   24.6430 C   0  0  2  0  0  0  0  0  0  0  0  0
    7.6120   11.5160   26.0290 O   0  0  0  0  0  0  0  0  0  0  0  0
    6.6740   12.5080   26.4410 C   0  0  0  0  0  0  0  0  0  0  0  0
    6.7150   13.8540   25.6890 C   0  0  0  0  0  0  0  0  0  0  0  0
    5.7640   14.7780   26.1440 C   0  0  0  0  0  0  0  0  0  0  0  0
    4.8730   14.4960   27.1760 C   0  0  0  0  0  0  0  0  0  0  0  0
    4.8850   13.2570   27.8170 C   0  0  0  0  0  0  0  0  0  0  0  0
    3.7660   12.9540   29.0840 Cl  0  0  0  0  0  0  0  0  0  0  0  0
    5.7740   12.2670   27.4570 C   0  0  0  0  0  0  0  0  0  0  0  0
    8.4540   10.1980   24.0800 C   0  0  0  0  0  0  0  0  0  0  0  0
    8.1920    9.0330   24.0460 O   0  0  0  0  0  0  0  0  0  0  0  0
    9.4750   10.8450   23.5540 N   0  0  0  0  0  0  0  0  0  0  0  0
   10.6930   10.1640   23.3800 C   0  0  0  0  0  0  0  0  0  0  0  0
   11.7050   11.0230   23.7090 C   0  0  0  0  0  0  0  0  0  0  0  0
   11.8480   12.2040   23.0260 C   0  0  0  0  0  0  0  0  0  0  0  0
   12.8690   13.0580   23.3420 C   0  0  0  0  0  0  0  0  0  0  0  0
   13.7590   12.7550   24.3460 C   0  0  0  0  0  0  0  0  0  0  0  0
   13.6400   11.5990   25.0480 C   0  0  0  0  0  0  0  0  0  0  0  0
   14.5450   11.3100   26.0650 N   0  0  0  0  0  0  0  0  0  0  0  0
   15.0500   12.2640   26.9130 C   0  0  0  0  0  0  0  0  0  0  0  0
   14.2480   12.4820   28.1680 C   0  0  0  0  0  0  0  0  0  0  0  0
   16.0610   12.9070   26.7120 O   0  0  0  0  0  0  0  0  0  0  0  0
   12.5920   10.7200   24.7160 C   0  0  0  0  0  0  0  0  0  0  0  0
   10.3590   14.2910   23.3810 C   0  0  0  0  0  0  0  0  0  0  0  0
   11.4010   14.0490   24.2250 O   0  0  0  0  0  0  0  0  0  0  0  0
   11.1330   14.5070   25.5550 C   0  0  0  0  0  0  0  0  0  0  0  0
   13.1710   15.1440   22.5160 H   0  0  0  0  0  0  0  0  0  0  0  0
   12.0770   14.8460   21.1790 H   0  0  0  0  0  0  0  0  0  0  0  0
   13.0110   16.3280   21.1780 H   0  0  0  0  0  0  0  0  0  0  0  0
    9.1080   16.4380   21.0550 H   0  0  0  0  0  0  0  0  0  0  0  0
    7.2750   14.8580   21.1770 H   0  0  0  0  0  0  0  0  0  0  0  0
    7.3810   12.8780   22.6530 H   0  0  0  0  0  0  0  0  0  0  0  0
   10.0160   12.0420   25.0760 H   0  0  0  0  0  0  0  0  0  0  0  0
    7.1480   12.0090   24.0570 H   0  0  0  0  0  0  0  0  0  0  0  0
    7.4470   13.9930   24.8900 H   0  0  0  0  0  0  0  0  0  0  0  0
    5.7290   15.7610   25.6610 H   0  0  0  0  0  0  0  0  0  0  0  0
    4.1590   15.2520   27.4840 H   0  0  0  0  0  0  0  0  0  0  0  0
    5.7520   11.3140   27.9780 H   0  0  0  0  0  0  0  0  0  0  0  0
   10.7130    9.2850   24.0380 H   0  0  0  0  0  0  0  0  0  0  0  0
   10.7610    9.7950   22.3510 H   0  0  0  0  0  0  0  0  0  0  0  0
   11.1670   12.4820   22.2360 H   0  0  0  0  0  0  0  0  0  0  0  0
   12.9760   13.9860   22.7960 H   0  0  0  0  0  0  0  0  0  0  0  0
   14.5480   13.4660   24.5530 H   0  0  0  0  0  0  0  0  0  0  0  0
   15.2400   10.6320   25.7690 H   0  0  0  0  0  0  0  0  0  0  0  0
   14.7330   13.2530   28.7710 H   0  0  0  0  0  0  0  0  0  0  0  0
   14.1530   11.5770   28.7700 H   0  0  0  0  0  0  0  0  0  0  0  0
   13.2490   12.8160   27.8860 H   0  0  0  0  0  0  0  0  0  0  0  0
   12.4360    9.7840   25.2160 H   0  0  0  0  0  0  0  0  0  0  0  0
   11.4340   13.7840   26.3200 H   0  0  0  0  0  0  0  0  0  0  0  0
   10.0500   14.6560   25.6440 H   0  0  0  0  0  0  0  0  0  0  0  0
   11.6080   15.4800   25.7250 H   0  0  0  0  0  0  0  0  0  0  0  0
  1  2  1  0
  2  3  1  0
  3  4  2  0
  4  5  1  0
  5  6  2  0
  6  7  1  0
  7  8  1  0
  8  9  1  0
  9 10  1  0
 10 11  1  0
 11 12  2  0
 12 13  1  0
 13 14  2  0
 14 15  1  0
 15 16  1  0
 15 17  2  0
  9 18  1  0
 18 19  2  0
 18 20  1  0
 20 21  1  0
 21 22  1  0
 22 23  2  0
 23 24  1  0
 24 25  2  0
 25 26  1  0
 26 27  1  0
 27 28  1  0
 28 29  1  0
 28 30  2  0
 26 31  2  0
  7 32  2  0
 32 33  1  0
 33 34  1  0
 32  3  1  0
 20  8  1  0
 31 22  1  0
 17 11  1  0
  1 35  1  0
  1 36  1  0
  1 37  1  0
  4 38  1  0
  5 39  1  0
  6 40  1  0
  8 41  1  1
  9 42  1  6
 12 43  1  0
 13 44  1  0
 14 45  1  0
 17 46  1  0
 21 47  1  0
 21 48  1  0
 23 49  1  0
 24 50  1  0
 25 51  1  0
 27 52  1  0
 29 53  1  0
 29 54  1  0
 29 55  1  0
 31 56  1  0
 34 57  1  0
 34 58  1  0
 34 59  1  0
A    1
 C1 
A    2
 O1 
A    3
 C2 
A    4
 C3 
A    5
 C4 
A    6
 C5 
A    7
 C6 
A    8
 C7 
A    9
 C8 
A   10
 O2 
A   11
 C9 
A   12
 C10
A   13
 C11
A   14
 C12
A   15
 C13
A   16
CL1 
A   17
 C14
A   18
 C15
A   19
 O3 
A   20
 N1 
A   21
 C16
A   22
 C17
A   23
 C18
A   24
 C19
A   25
 C20
A   26
 C21
A   27
 N2 
A   28
 C22
A   29
 C23
A   30
 O4 
A   31
 C24
A   32
 C25
A   33
 O5 
A   34
 C26
A   35
 H1 
A   36
 H2 
A   37
 H3 
A   38
 H4 
A   39
 H5 
A   40
 H6 
A   41
 H7 
A   42
 H8 
A   43
 H9 
A   44
 H10
A   45
 H11
A   46
 H12
A   47
 H13
A   48
 H14
A   49
 H15
A   50
 H16
A   51
 H17
A   52
 H18
A   53
 H19
A   54
 H20
A   55
 H21
A   56
 H22
A   57
 H23
A   58
 H24
A   59
 H25
M  END
>  <ref_pdb>  (1) 
x0451_0A

>  <ref_mols>  (1) 
x0451_0A,x0554_0A,x0556_0A,x0566_0A,x0310_0A,x0416_0A

>  <original SMILES>  (1) 
COc1cccc([C@H]2[C@H](Oc3cccc(Cl)c3)C(=O)N2Cc2cccc(NC(C)=O)c2)c1OC

>  <rationale>  (1) 
info info set:ROCS-cov2;Warhead 9.963828337039935Å to Cys110:SG; hbond:S87+G108; hydroph_interaction:Y89+P107+A110+T126; 

>  <∆∆G>  (1) 
-12.643915

>  <comRMSD>  (1) 
0.65618

>  <ROCS_TanimotoCombo>  (1) 
0.526

>  <ROCS_ShapeTanimoto>  (1) 
0.372

>  <ROCS_ColorTanimoto>  (1) 
0.154

>  <distance>  (1) 
9.963828

$$$$
Z131580190
     RDKit          3D

 59 61  0  0  0  0  0  0  0  0999 V2000
   14.8060   18.7650   18.6030 C   0  0  0  0  0  0  0  0  0  0  0  0
   13.9970   17.7610   19.1790 C   0  0  0  0  0  0  0  0  0  0  0  0
   13.6280   16.6520   18.4510 C   0  0  0  0  0  0  0  0  0  0  0  0
   12.4950   16.0850   18.9810 N   0  0  0  0  0  0  0  0  0  0  0  0
   11.1880   15.7650   18.4270 C   0  0  0  0  0  0  0  0  0  0  0  0
   10.7830   16.0110   16.9980 C   0  0  0  0  0  0  0  0  0  0  0  0
   10.2800   15.1560   19.4930 C   0  0  0  0  0  0  0  0  0  0  0  0
   11.2280   15.1630   20.6390 C   0  0  0  0  0  0  0  0  0  0  0  0
   11.1780   14.7420   22.1050 C   0  0  0  0  0  0  0  0  0  0  0  0
    9.8360   14.6270   22.7730 C   0  0  0  0  0  0  0  0  0  0  0  0
    8.6330   14.8270   22.1470 C   0  0  0  0  0  0  0  0  0  0  0  0
    7.6050   14.9890   21.6750 N   0  0  0  0  0  0  0  0  0  0  0  0
    9.8560   14.2790   24.1970 C   0  0  0  0  0  0  0  0  0  0  0  0
    9.9280   15.1560   25.0490 O   0  0  0  0  0  0  0  0  0  0  0  0
    9.8010   12.9710   24.5090 N   0  0  0  0  0  0  0  0  0  0  0  0
   10.5650   12.2420   23.5220 C   0  0  0  0  0  0  0  0  0  0  0  0
   10.1630   10.8000   23.3450 C   0  0  1  0  0  0  0  0  0  0  0  0
   10.8810    9.9310   24.3230 C   0  0  0  0  0  0  0  0  0  0  0  0
   11.9000   10.2520   24.9700 O   0  0  0  0  0  0  0  0  0  0  0  0
   10.2210    8.7590   24.3000 N   0  0  0  0  0  0  0  0  0  0  0  0
    8.8050    8.6350   24.5590 C   0  0  0  0  0  0  0  0  0  0  0  0
   10.3530    8.3040   22.9990 C   0  0  0  0  0  0  0  0  0  0  0  0
    8.7560   10.5900   23.4300 O   0  0  0  0  0  0  0  0  0  0  0  0
    8.2100   11.1360   24.5630 C   0  0  0  0  0  0  0  0  0  0  0  0
    7.1350   10.4600   25.1390 C   0  0  0  0  0  0  0  0  0  0  0  0
    6.5220   10.9560   26.2730 C   0  0  0  0  0  0  0  0  0  0  0  0
    6.9880   12.1350   26.8330 C   0  0  0  0  0  0  0  0  0  0  0  0
    8.0710   12.8050   26.2570 C   0  0  0  0  0  0  0  0  0  0  0  0
    8.6990   12.3150   25.1170 C   0  0  0  0  0  0  0  0  0  0  0  0
   12.3910   15.6860   20.2540 C   0  0  0  0  0  0  0  0  0  0  0  0
   13.3930   15.7870   21.1840 C   0  0  0  0  0  0  0  0  0  0  0  0
   15.1330   19.4840   19.3590 H   0  0  0  0  0  0  0  0  0  0  0  0
   14.2700   19.3080   17.8230 H   0  0  0  0  0  0  0  0  0  0  0  0
   15.7030   18.3270   18.1530 H   0  0  0  0  0  0  0  0  0  0  0  0
   13.0850   18.1610   19.5740 H   0  0  0  0  0  0  0  0  0  0  0  0
   14.5150   17.3860   20.0470 H   0  0  0  0  0  0  0  0  0  0  0  0
   13.5050   16.8470   17.3840 H   0  0  0  0  0  0  0  0  0  0  0  0
   14.4140   15.9220   18.5730 H   0  0  0  0  0  0  0  0  0  0  0  0
   10.2820   15.1270   16.5930 H   0  0  0  0  0  0  0  0  0  0  0  0
   11.6450   16.2110   16.3720 H   0  0  0  0  0  0  0  0  0  0  0  0
   10.1030   16.8650   16.9220 H   0  0  0  0  0  0  0  0  0  0  0  0
    9.2690   14.8320   19.4200 H   0  0  0  0  0  0  0  0  0  0  0  0
   12.1120   14.5640   22.6410 H   0  0  0  0  0  0  0  0  0  0  0  0
   11.6050   12.2460   23.8720 H   0  0  0  0  0  0  0  0  0  0  0  0
   10.5540   12.7570   22.5590 H   0  0  0  0  0  0  0  0  0  0  0  0
   10.4760   10.4240   22.3710 H   0  0  0  0  0  0  0  0  0  0  0  0
    8.2080    8.9030   23.6870 H   0  0  0  0  0  0  0  0  0  0  0  0
    8.5810    7.5940   24.7900 H   0  0  0  0  0  0  0  0  0  0  0  0
    8.5310    9.2700   25.4010 H   0  0  0  0  0  0  0  0  0  0  0  0
   10.9340    7.4230   23.0330 H   0  0  0  0  0  0  0  0  0  0  0  0
    9.3600    8.0830   22.5960 H   0  0  0  0  0  0  0  0  0  0  0  0
   10.8490    9.0300   22.3530 H   0  0  0  0  0  0  0  0  0  0  0  0
    6.7750    9.5460   24.6950 H   0  0  0  0  0  0  0  0  0  0  0  0
    5.6810   10.4260   26.7170 H   0  0  0  0  0  0  0  0  0  0  0  0
    6.5130   12.5370   27.7250 H   0  0  0  0  0  0  0  0  0  0  0  0
    8.3990   13.7200   26.7360 H   0  0  0  0  0  0  0  0  0  0  0  0
   13.6330   14.8080   21.5290 H   0  0  0  0  0  0  0  0  0  0  0  0
   14.2680   16.3180   20.8400 H   0  0  0  0  0  0  0  0  0  0  0  0
   12.9340   16.2700   21.9830 H   0  0  0  0  0  0  0  0  0  0  0  0
  1  2  1  0
  2  3  1  0
  3  4  1  0
  4  5  1  0
  5  6  1  0
  5  7  2  0
  7  8  1  0
  8  9  1  0
  9 10  2  3
 10 11  1  0
 11 12  3  0
 10 13  1  0
 13 14  2  0
 13 15  1  0
 15 16  1  0
 16 17  1  0
 17 18  1  0
 18 19  2  0
 18 20  1  0
 20 21  1  0
 20 22  1  0
 17 23  1  0
 23 24  1  0
 24 25  2  0
 25 26  1  0
 26 27  2  0
 27 28  1  0
 28 29  2  0
  8 30  2  0
 30 31  1  0
 30  4  1  0
 29 15  1  0
 29 24  1  0
  1 32  1  0
  1 33  1  0
  1 34  1  0
  2 35  1  0
  2 36  1  0
  3 37  1  0
  3 38  1  0
  6 39  1  0
  6 40  1  0
  6 41  1  0
  7 42  1  0
  9 43  1  0
 16 44  1  0
 16 45  1  0
 17 46  1  6
 21 47  1  0
 21 48  1  0
 21 49  1  0
 22 50  1  0
 22 51  1  0
 22 52  1  0
 25 53  1  0
 26 54  1  0
 27 55  1  0
 28 56  1  0
 31 57  1  0
 31 58  1  0
 31 59  1  0
A    1
 C1 
A    2
 C2 
A    3
 C3 
A    4
 N1 
A    5
 C4 
A    6
 C5 
A    7
 C6 
A    8
 C7 
A    9
 C8 
A   10
 C9 
A   11
 C10
A   12
 N2 
A   13
 C11
A   14
 O1 
A   15
 N3 
A   16
 C12
A   17
 C13
A   18
 C14
A   19
 O2 
A   20
 N4 
A   21
 C15
A   22
 C16
A   23
 O3 
A   24
 C17
A   25
 C18
A   26
 C19
A   27
 C20
A   28
 C21
A   29
 C22
A   30
 C23
A   31
 C24
A   32
 H1 
A   33
 H2 
A   34
 H3 
A   35
 H4 
A   36
 H5 
A   37
 H6 
A   38
 H7 
A   39
 H8 
A   40
 H9 
A   41
 H10
A   42
 H11
A   43
 H12
A   44
 H13
A   45
 H14
A   46
 H15
A   47
 H16
A   48
 H17
A   49
 H18
A   50
 H19
A   51
 H20
A   52
 H21
A   53
 H22
A   54
 H23
A   55
 H24
A   56
 H25
A   57
 H26
A   58
 H27
A   59
 H28
M  END
>  <ref_pdb>  (2) 
x0451_0A

>  <ref_mols>  (2) 
x0451_0A,x0554_0A,x0556_0A,x0566_0A,x0310_0A,x0416_0A

>  <original SMILES>  (2) 
CCCn1c(C)cc(C=C(C#N)C(=O)N2C[C@@H](C(=O)N(C)C)Oc3ccccc32)c1C

>  <rationale>  (2) 
info info set:ROCS-cov2;Warhead 4.825080764090898Å to Cys110:SG; hbond:S87+D109+A110+G108; hydroph_interaction:Y89+Y90+P107+H21; pistack:Y90; 

>  <∆∆G>  (2) 
-11.821899

>  <comRMSD>  (2) 
1.451376

>  <ROCS_TanimotoCombo>  (2) 
0.545

>  <ROCS_ShapeTanimoto>  (2) 
0.377

>  <ROCS_ColorTanimoto>  (2) 
0.167

>  <distance>  (2) 
4.825081

$$$$
EN300_28299118
     RDKit          3D

 44 45  0  0  0  0  0  0  0  0999 V2000
    8.6500    8.3900   24.1030 C   0  0  0  0  0  0  0  0  0  0  0  0
    9.1230    9.5930   24.5330 N   0  0  0  0  0  0  0  0  0  0  0  0
    8.3140   10.7030   25.0960 C   0  0  0  0  0  0  0  0  0  0  0  0
    7.0950   10.2320   25.8880 C   0  0  0  0  0  0  0  0  0  0  0  0
    6.2500   11.1580   26.4850 C   0  0  0  0  0  0  0  0  0  0  0  0
    6.5730   12.6570   26.3260 C   0  0  0  0  0  0  0  0  0  0  0  0
    5.4660   13.9610   27.1200 Br  0  0  0  0  0  0  0  0  0  0  0  0
    7.7990   13.1260   25.5210 C   0  0  0  0  0  0  0  0  0  0  0  0
    8.6390   12.0560   24.9230 C   0  0  0  0  0  0  0  0  0  0  0  0
    9.7850   12.3710   24.1600 N   0  0  0  0  0  0  0  0  0  0  0  0
   10.0850   13.7630   23.7450 C   0  0  0  0  0  0  0  0  0  0  0  0
   10.3040   14.6730   24.5240 O   0  0  0  0  0  0  0  0  0  0  0  0
   10.1200   13.9680   22.3880 O   0  0  0  0  0  0  0  0  0  0  0  0
   11.3860   14.4220   21.8690 C   0  0  0  0  0  0  0  0  0  0  0  0
   11.4470   15.7030   22.2240 C   0  0  0  0  0  0  0  0  0  0  0  0
   12.4330   13.6370   22.6380 C   0  0  0  0  0  0  0  0  0  0  0  0
   11.5520   14.4020   20.3410 C   0  0  0  0  0  0  0  0  0  0  0  0
    9.9070   11.3930   23.2670 C   0  0  0  0  0  0  0  0  0  0  0  0
   10.2910   10.0520   23.7910 C   0  0  0  0  0  0  0  0  0  0  0  0
   11.4000    9.9710   24.5830 C   0  0  0  0  0  0  0  0  0  0  0  0
   10.4530    9.0870   22.6250 C   0  0  0  0  0  0  0  0  0  0  0  0
    7.8660    8.5320   23.3710 H   0  0  0  0  0  0  0  0  0  0  0  0
    9.4400    7.8350   23.5990 H   0  0  0  0  0  0  0  0  0  0  0  0
    8.3000    7.7630   24.9050 H   0  0  0  0  0  0  0  0  0  0  0  0
    6.9580    9.1680   25.9430 H   0  0  0  0  0  0  0  0  0  0  0  0
    5.3650   10.9320   27.0670 H   0  0  0  0  0  0  0  0  0  0  0  0
    8.0340   14.1830   25.4010 H   0  0  0  0  0  0  0  0  0  0  0  0
   12.4270   16.1100   21.9810 H   0  0  0  0  0  0  0  0  0  0  0  0
   10.7050   16.3080   21.6900 H   0  0  0  0  0  0  0  0  0  0  0  0
   11.2900   15.8290   23.2980 H   0  0  0  0  0  0  0  0  0  0  0  0
   12.0070   13.1960   23.5440 H   0  0  0  0  0  0  0  0  0  0  0  0
   13.2470   14.2780   22.9740 H   0  0  0  0  0  0  0  0  0  0  0  0
   12.8410   12.8300   22.0390 H   0  0  0  0  0  0  0  0  0  0  0  0
   11.7480   15.4100   19.9640 H   0  0  0  0  0  0  0  0  0  0  0  0
   12.3820   13.7720   20.0190 H   0  0  0  0  0  0  0  0  0  0  0  0
   10.6480   14.0190   19.8470 H   0  0  0  0  0  0  0  0  0  0  0  0
    8.9230   11.2420   22.8530 H   0  0  0  0  0  0  0  0  0  0  0  0
   10.6010   11.7440   22.5030 H   0  0  0  0  0  0  0  0  0  0  0  0
   11.3960    9.1040   25.2290 H   0  0  0  0  0  0  0  0  0  0  0  0
   11.4730   10.8530   25.2170 H   0  0  0  0  0  0  0  0  0  0  0  0
   12.3070    9.9350   24.0100 H   0  0  0  0  0  0  0  0  0  0  0  0
   11.0800    9.5100   21.8460 H   0  0  0  0  0  0  0  0  0  0  0  0
    9.5040    8.8090   22.1770 H   0  0  0  0  0  0  0  0  0  0  0  0
   10.9220    8.1630   22.9610 H   0  0  0  0  0  0  0  0  0  0  0  0
  1  2  1  0
  2  3  1  0
  3  4  2  0
  4  5  1  0
  5  6  2  0
  6  7  1  0
  6  8  1  0
  8  9  2  0
  9 10  1  0
 10 11  1  0
 11 12  2  0
 11 13  1  0
 13 14  1  0
 14 15  1  0
 14 16  1  0
 14 17  1  0
 10 18  1  0
 18 19  1  0
 19 20  1  0
 19 21  1  0
 19  2  1  0
  9  3  1  0
  1 22  1  0
  1 23  1  0
  1 24  1  0
  4 25  1  0
  5 26  1  0
  8 27  1  0
 15 28  1  0
 15 29  1  0
 15 30  1  0
 16 31  1  0
 16 32  1  0
 16 33  1  0
 17 34  1  0
 17 35  1  0
 17 36  1  0
 18 37  1  0
 18 38  1  0
 20 39  1  0
 20 40  1  0
 20 41  1  0
 21 42  1  0
 21 43  1  0
 21 44  1  0
A    1
 C1 
A    2
 N1 
A    3
 C2 
A    4
 C3 
A    5
 C4 
A    6
 C5 
A    7
BR1 
A    8
 C6 
A    9
 C7 
A   10
 N2 
A   11
 C8 
A   12
 O1 
A   13
 O2 
A   14
 C9 
A   15
 C10
A   16
 C11
A   17
 C12
A   18
 C13
A   19
 C14
A   20
 C15
A   21
 C16
A   22
 H1 
A   23
 H2 
A   24
 H3 
A   25
 H4 
A   26
 H5 
A   27
 H6 
A   28
 H7 
A   29
 H8 
A   30
 H9 
A   31
 H10
A   32
 H11
A   33
 H12
A   34
 H13
A   35
 H14
A   36
 H15
A   37
 H16
A   38
 H17
A   39
 H18
A   40
 H19
A   41
 H20
A   42
 H21
A   43
 H22
A   44
 H23
M  END
>  <ref_pdb>  (3) 
x0451_0A

>  <ref_mols>  (3) 
x0451_0A,x0554_0A,x0556_0A,x0566_0A,x0310_0A,x0416_0A

>  <original SMILES>  (3) 
CN1c2ccc(Br)cc2N(C(=O)OC(C)(C)C)CC1(C)C

>  <rationale>  (3) 
info info set:ROCS-BB-0RB;Warhead nanÅ to Cys110:SG; hydroph_interaction:V124; 

>  <∆∆G>  (3) 
-11.453057

>  <comRMSD>  (3) 
0.678734

>  <ROCS_TanimotoCombo>  (3) 
0.494

>  <ROCS_ShapeTanimoto>  (3) 
0.373

>  <ROCS_ColorTanimoto>  (3) 
0.121

>  <distance>  (3) 
nan

$$$$
Z223278782
     RDKit          3D

 33 33  0  0  0  0  0  0  0  0999 V2000
    6.4880   11.6520   26.2550 C   0  0  0  0  0  0  0  0  0  0  0  0
    7.6060   11.2410   25.3580 C   0  0  0  0  0  0  0  0  0  0  0  0
    7.6130    9.9590   24.8600 C   0  0  0  0  0  0  0  0  0  0  0  0
    8.6260    9.5240   24.0250 C   0  0  0  0  0  0  0  0  0  0  0  0
    9.6650   10.3830   23.6740 C   0  0  0  0  0  0  0  0  0  0  0  0
   10.6970    9.8270   22.7880 C   0  0  0  0  0  0  0  0  0  0  0  0
    9.6740   11.7030   24.1780 C   0  0  0  0  0  0  0  0  0  0  0  0
   10.9520   12.9150   23.8220 S   0  0  0  0  0  6  0  0  0  0  0  0
   12.2380   12.2550   23.9020 O   0  0  0  0  0  0  0  0  0  0  0  0
   10.6850   14.0970   24.6080 O   0  0  0  0  0  0  0  0  0  0  0  0
   10.7290   13.3620   22.2300 N   0  0  0  0  0  0  0  0  0  0  0  0
    9.9920   14.5640   21.8570 C   0  0  0  0  0  0  0  0  0  0  0  0
   10.9510   15.7380   21.6320 C   0  0  1  0  0  0  0  0  0  0  0  0
   12.2020   15.3480   20.8620 C   0  0  0  0  0  0  0  0  0  0  0  0
   10.2760   16.7960   20.9500 O   0  0  0  0  0  0  0  0  0  0  0  0
    8.6350   12.1210   25.0210 C   0  0  0  0  0  0  0  0  0  0  0  0
    5.9890   12.5390   25.8540 H   0  0  0  0  0  0  0  0  0  0  0  0
    5.7520   10.8440   26.3490 H   0  0  0  0  0  0  0  0  0  0  0  0
    6.8540   11.8750   27.2620 H   0  0  0  0  0  0  0  0  0  0  0  0
    6.8090    9.2980   25.1390 H   0  0  0  0  0  0  0  0  0  0  0  0
    8.5960    8.5010   23.6500 H   0  0  0  0  0  0  0  0  0  0  0  0
   11.3390   10.6360   22.4620 H   0  0  0  0  0  0  0  0  0  0  0  0
   11.3040    9.1040   23.3290 H   0  0  0  0  0  0  0  0  0  0  0  0
   10.2690    9.3690   21.8970 H   0  0  0  0  0  0  0  0  0  0  0  0
   10.9700   12.6620   21.5250 H   0  0  0  0  0  0  0  0  0  0  0  0
    9.2900   14.8120   22.6620 H   0  0  0  0  0  0  0  0  0  0  0  0
    9.3900   14.4190   20.9570 H   0  0  0  0  0  0  0  0  0  0  0  0
   11.2590   16.1380   22.6040 H   0  0  0  0  0  0  0  0  0  0  0  0
   13.0810   15.8510   21.2790 H   0  0  0  0  0  0  0  0  0  0  0  0
   12.1320   15.6480   19.8130 H   0  0  0  0  0  0  0  0  0  0  0  0
   12.3730   14.2690   20.8980 H   0  0  0  0  0  0  0  0  0  0  0  0
   10.3680   17.5650   21.5160 H   0  0  0  0  0  0  0  0  0  0  0  0
    8.6250   13.1350   25.4200 H   0  0  0  0  0  0  0  0  0  0  0  0
  1  2  1  0
  2  3  2  0
  3  4  1  0
  4  5  2  0
  5  6  1  0
  5  7  1  0
  7  8  1  0
  8  9  2  0
  8 10  2  0
  8 11  1  0
 11 12  1  0
 12 13  1  0
 13 14  1  0
 13 15  1  0
  7 16  2  0
 16  2  1  0
  1 17  1  0
  1 18  1  0
  1 19  1  0
  3 20  1  0
  4 21  1  0
  6 22  1  0
  6 23  1  0
  6 24  1  0
 11 25  1  0
 12 26  1  0
 12 27  1  0
 13 28  1  1
 14 29  1  0
 14 30  1  0
 14 31  1  0
 15 32  1  0
 16 33  1  0
A    1
 C1 
A    2
 C2 
A    3
 C3 
A    4
 C4 
A    5
 C5 
A    6
 C6 
A    7
 C7 
A    8
 S1 
A    9
 O1 
A   10
 O2 
A   11
 N1 
A   12
 C8 
A   13
 C9 
A   14
 C10
A   15
 O3 
A   16
 C11
A   17
 H1 
A   18
 H2 
A   19
 H3 
A   20
 H4 
A   21
 H5 
A   22
 H6 
A   23
 H7 
A   24
 H8 
A   25
 H9 
A   26
 H10
A   27
 H11
A   28
 H12
A   29
 H13
A   30
 H14
A   31
 H15
A   32
 H16
A   33
 H17
M  END
>  <ref_pdb>  (4) 
x0451_0A

>  <ref_mols>  (4) 
x0451_0A,x0554_0A,x0556_0A,x0566_0A,x0310_0A,x0416_0A

>  <original SMILES>  (4) 
Cc1ccc(C)c(S(=O)(=O)NC[C@@H](C)O)c1

>  <rationale>  (4) 
info info set:ROCS-shape_Q1;Warhead nanÅ to Cys110:SG; hbond:S87; hydroph_interaction:Y90+A110+V124; 

>  <∆∆G>  (4) 
-11.068881

>  <comRMSD>  (4) 
0.422068

>  <ROCS_TanimotoCombo>  (4) 
0.444

>  <ROCS_ShapeTanimoto>  (4) 
0.285

>  <ROCS_ColorTanimoto>  (4) 
0.159

>  <distance>  (4) 
nan

$$$$
Z123605552
     RDKit          3D

 33 34  0  0  0  0  0  0  0  0999 V2000
   10.7360   16.8570   18.3140 C   0  0  0  0  0  0  0  0  0  0  0  0
   10.9490   16.1440   19.6550 C   0  0  0  0  0  0  0  0  0  0  0  0
   10.0350   16.5320   20.7960 C   0  0  0  0  0  0  0  0  0  0  0  0
   10.2840   15.7850   22.0200 C   0  0  0  0  0  0  0  0  0  0  0  0
   11.2500   14.8170   22.1690 C   0  0  0  0  0  0  0  0  0  0  0  0
   11.4890   13.9120   23.6590 S   0  0  0  0  0  6  0  0  0  0  0  0
   12.8750   13.8520   24.0170 O   0  0  0  0  0  0  0  0  0  0  0  0
   10.4200   14.2880   24.5410 O   0  0  0  0  0  0  0  0  0  0  0  0
   11.0670   12.4330   23.0660 N   0  0  0  0  0  0  0  0  0  0  0  0
   10.1200   11.6120   23.5660 C   0  0  0  0  0  0  0  0  0  0  0  0
    8.9330   11.9640   24.4830 C   0  0  0  0  0  0  0  0  0  0  0  0
    8.2570   10.6080   24.6700 C   0  0  0  0  0  0  0  0  0  0  0  0
    9.0640    9.7760   23.9200 N   0  0  0  0  0  0  0  0  0  0  0  0
    8.9960    8.3730   23.6700 C   0  0  0  0  0  0  0  0  0  0  0  0
   10.1100   10.3340   23.2980 N   0  0  0  0  0  0  0  0  0  0  0  0
   12.0690   14.4880   21.1470 C   0  0  0  0  0  0  0  0  0  0  0  0
   11.9050   15.1790   19.8500 C   0  0  0  0  0  0  0  0  0  0  0  0
   12.7590   14.8000   18.7820 C   0  0  0  0  0  0  0  0  0  0  0  0
   11.6420   16.8590   17.7000 H   0  0  0  0  0  0  0  0  0  0  0  0
   10.4150   17.8920   18.4600 H   0  0  0  0  0  0  0  0  0  0  0  0
    9.9560   16.3520   17.7300 H   0  0  0  0  0  0  0  0  0  0  0  0
    9.2660   17.2920   20.6930 H   0  0  0  0  0  0  0  0  0  0  0  0
    9.6540   16.0080   22.8790 H   0  0  0  0  0  0  0  0  0  0  0  0
   11.3660   12.2770   22.0990 H   0  0  0  0  0  0  0  0  0  0  0  0
    8.6410   12.9190   24.8940 H   0  0  0  0  0  0  0  0  0  0  0  0
    7.3840   10.2760   25.2160 H   0  0  0  0  0  0  0  0  0  0  0  0
    8.2480    8.1850   22.9020 H   0  0  0  0  0  0  0  0  0  0  0  0
    8.7700    7.8600   24.6050 H   0  0  0  0  0  0  0  0  0  0  0  0
    9.9730    8.0440   23.3020 H   0  0  0  0  0  0  0  0  0  0  0  0
   12.8120   13.7240   21.2880 H   0  0  0  0  0  0  0  0  0  0  0  0
   12.3950   15.1750   17.8240 H   0  0  0  0  0  0  0  0  0  0  0  0
   12.7690   13.7130   18.7470 H   0  0  0  0  0  0  0  0  0  0  0  0
   13.7460   15.1740   18.9460 H   0  0  0  0  0  0  0  0  0  0  0  0
  1  2  1  0
  2  3  2  0
  3  4  1  0
  4  5  2  0
  5  6  1  0
  6  7  2  0
  6  8  2  0
  6  9  1  0
  9 10  1  0
 10 11  1  0
 11 12  2  0
 12 13  1  0
 13 14  1  0
 13 15  1  0
  5 16  1  0
 16 17  2  0
 17 18  1  0
 17  2  1  0
 15 10  2  0
  1 19  1  0
  1 20  1  0
  1 21  1  0
  3 22  1  0
  4 23  1  0
  9 24  1  0
 11 25  1  0
 12 26  1  0
 14 27  1  0
 14 28  1  0
 14 29  1  0
 16 30  1  0
 18 31  1  0
 18 32  1  0
 18 33  1  0
A    1
 C1 
A    2
 C2 
A    3
 C3 
A    4
 C4 
A    5
 C5 
A    6
 S1 
A    7
 O1 
A    8
 O2 
A    9
 N1 
A   10
 C6 
A   11
 C7 
A   12
 C8 
A   13
 N2 
A   14
 C9 
A   15
 N3 
A   16
 C10
A   17
 C11
A   18
 C12
A   19
 H1 
A   20
 H2 
A   21
 H3 
A   22
 H4 
A   23
 H5 
A   24
 H6 
A   25
 H7 
A   26
 H8 
A   27
 H9 
A   28
 H10
A   29
 H11
A   30
 H12
A   31
 H13
A   32
 H14
A   33
 H15
M  END
>  <ref_pdb>  (5) 
x0451_0A

>  <ref_mols>  (5) 
x0451_0A,x0554_0A,x0556_0A,x0566_0A,x0310_0A,x0416_0A

>  <original SMILES>  (5) 
Cc1ccc(S(=O)(=O)Nc2ccn(C)n2)cc1C

>  <rationale>  (5) 
info info set:ROCS-shape_Q1;Warhead nanÅ to Cys110:SG; hbond:S125; hydroph_interaction:Y90+D39+T126; pistack:H21; 

>  <∆∆G>  (5) 
-10.951396

>  <comRMSD>  (5) 
0.959053

>  <ROCS_TanimotoCombo>  (5) 
0.4

>  <ROCS_ShapeTanimoto>  (5) 
0.283

>  <ROCS_ColorTanimoto>  (5) 
0.117

>  <distance>  (5) 
nan

$$$$
Z1815548134
     RDKit          3D

 45 47  0  0  0  0  0  0  0  0999 V2000
    8.9010   15.6090   22.8910 C   0  0  0  0  0  0  0  0  0  0  0  0
    9.7730   15.8220   21.6890 C   0  0  0  0  0  0  0  0  0  0  0  0
    9.3560   16.6480   20.6930 N   0  0  0  0  0  0  0  0  0  0  0  0
   10.4090   16.5270   19.7900 N   0  0  0  0  0  0  0  0  0  0  0  0
   11.4360   15.6560   20.2230 C   0  0  0  0  0  0  0  0  0  0  0  0
   12.5070   15.4340   19.4070 C   0  0  0  0  0  0  0  0  0  0  0  0
   11.0480   15.2300   21.4360 C   0  0  0  0  0  0  0  0  0  0  0  0
   11.8510   14.2890   22.2970 C   0  0  0  0  0  0  0  0  0  0  0  0
   11.0690   13.5150   23.3110 C   0  0  0  0  0  0  0  0  0  0  0  0
   10.7090   14.0420   24.3630 O   0  0  0  0  0  0  0  0  0  0  0  0
   10.8480   12.2450   22.8960 N   0  0  0  0  0  0  0  0  0  0  0  0
    9.9370   11.3570   23.5380 C   0  0  0  0  0  0  0  0  0  0  0  0
   10.1770    9.9200   23.0720 C   0  0  0  0  0  0  0  0  0  0  0  0
    9.2560    8.9210   23.7230 C   0  0  0  0  0  0  0  0  0  0  0  0
    8.3070    9.3460   24.6490 C   0  0  0  0  0  0  0  0  0  0  0  0
    8.1160   10.7810   25.0550 C   0  0  0  0  0  0  0  0  0  0  0  0
    7.2760   11.1490   25.8710 O   0  0  0  0  0  0  0  0  0  0  0  0
    6.8860   12.5240   25.8850 C   0  0  0  0  0  0  0  0  0  0  0  0
    5.7760   12.6260   26.7260 C   0  0  0  0  0  0  0  0  0  0  0  0
    5.2020   11.4600   27.2780 C   0  0  0  0  0  0  0  0  0  0  0  0
    3.9960   11.6190   28.1950 C   0  0  0  0  0  0  0  0  0  0  0  0
    3.5290   12.9020   28.4360 C   0  0  0  0  0  0  0  0  0  0  0  0
    4.1990   13.9800   27.8170 C   0  0  0  0  0  0  0  0  0  0  0  0
    5.2780   13.8670   26.9950 N   0  0  0  0  0  0  0  0  0  0  0  0
    8.9520   11.7330   24.4720 C   0  0  0  0  0  0  0  0  0  0  0  0
    8.0170   16.2530   22.8550 H   0  0  0  0  0  0  0  0  0  0  0  0
    9.4550   15.8200   23.8090 H   0  0  0  0  0  0  0  0  0  0  0  0
    8.5560   14.5710   22.9150 H   0  0  0  0  0  0  0  0  0  0  0  0
   10.4310   17.0120   18.9030 H   0  0  0  0  0  0  0  0  0  0  0  0
   12.5360   15.9800   18.4710 H   0  0  0  0  0  0  0  0  0  0  0  0
   12.7270   14.4150   19.1160 H   0  0  0  0  0  0  0  0  0  0  0  0
   13.3480   15.7480   20.0200 H   0  0  0  0  0  0  0  0  0  0  0  0
   12.5110   14.9210   22.8850 H   0  0  0  0  0  0  0  0  0  0  0  0
   12.5420   13.6700   21.7360 H   0  0  0  0  0  0  0  0  0  0  0  0
   11.0680   12.0230   21.9270 H   0  0  0  0  0  0  0  0  0  0  0  0
   10.9380    9.6290   22.3420 H   0  0  0  0  0  0  0  0  0  0  0  0
    9.3390    7.8560   23.4690 H   0  0  0  0  0  0  0  0  0  0  0  0
    7.6830    8.6100   25.1030 H   0  0  0  0  0  0  0  0  0  0  0  0
    7.7770   13.1050   26.1450 H   0  0  0  0  0  0  0  0  0  0  0  0
    6.5770   12.8260   24.8780 H   0  0  0  0  0  0  0  0  0  0  0  0
    5.6100   10.4750   27.0550 H   0  0  0  0  0  0  0  0  0  0  0  0
    3.5250   10.7430   28.6400 H   0  0  0  0  0  0  0  0  0  0  0  0
    2.6760   13.0770   29.0800 H   0  0  0  0  0  0  0  0  0  0  0  0
    3.8630   15.0000   27.9800 H   0  0  0  0  0  0  0  0  0  0  0  0
    8.8190   12.7710   24.7670 H   0  0  0  0  0  0  0  0  0  0  0  0
  1  2  1  0
  2  3  2  0
  3  4  1  0
  4  5  1  0
  5  6  1  0
  5  7  2  0
  7  8  1  0
  8  9  1  0
  9 10  2  0
  9 11  1  0
 11 12  1  0
 12 13  2  0
 13 14  1  0
 14 15  2  0
 15 16  1  0
 16 17  1  0
 17 18  1  0
 18 19  1  0
 19 20  2  0
 20 21  1  0
 21 22  2  0
 22 23  1  0
 23 24  2  0
 16 25  2  0
  7  2  1  0
 25 12  1  0
 24 19  1  0
  1 26  1  0
  1 27  1  0
  1 28  1  0
  4 29  1  0
  6 30  1  0
  6 31  1  0
  6 32  1  0
  8 33  1  0
  8 34  1  0
 11 35  1  0
 13 36  1  0
 14 37  1  0
 15 38  1  0
 18 39  1  0
 18 40  1  0
 20 41  1  0
 21 42  1  0
 22 43  1  0
 23 44  1  0
 25 45  1  0
A    1
 C1 
A    2
 C2 
A    3
 N1 
A    4
 N2 
A    5
 C3 
A    6
 C4 
A    7
 C5 
A    8
 C6 
A    9
 C7 
A   10
 O1 
A   11
 N3 
A   12
 C8 
A   13
 C9 
A   14
 C10
A   15
 C11
A   16
 C12
A   17
 O2 
A   18
 C13
A   19
 C14
A   20
 C15
A   21
 C16
A   22
 C17
A   23
 C18
A   24
 N4 
A   25
 C19
A   26
 H1 
A   27
 H2 
A   28
 H3 
A   29
 H4 
A   30
 H5 
A   31
 H6 
A   32
 H7 
A   33
 H8 
A   34
 H9 
A   35
 H10
A   36
 H11
A   37
 H12
A   38
 H13
A   39
 H14
A   40
 H15
A   41
 H16
A   42
 H17
A   43
 H18
A   44
 H19
A   45
 H20
M  END
>  <ref_pdb>  (6) 
x0451_0A

>  <ref_mols>  (6) 
x0451_0A,x0554_0A,x0556_0A,x0566_0A,x0310_0A,x0416_0A

>  <original SMILES>  (6) 
Cc1n[nH]c(C)c1CC(=O)Nc1cccc(OCc2ccccn2)c1

>  <rationale>  (6) 
info info set:ROCS-PPI;Warhead nanÅ to Cys110:SG; hbond:S87+S125; hydroph_interaction:Y89+Y90+T126; 

>  <∆∆G>  (6) 
-10.856022

>  <comRMSD>  (6) 
0.461437

>  <ROCS_TanimotoCombo>  (6) 
0.542

>  <ROCS_ShapeTanimoto>  (6) 
0.354

>  <ROCS_ColorTanimoto>  (6) 
0.188

>  <distance>  (6) 
nan

$$$$
Z57008883
     RDKit          3D

 29 29  0  0  0  0  0  0  0  0999 V2000
    6.2920    9.9760   26.0800 C   0  0  0  0  0  0  0  0  0  0  0  0
    7.4550   10.4050   25.2630 C   0  0  0  0  0  0  0  0  0  0  0  0
    7.6960   11.7650   25.2580 C   0  0  0  0  0  0  0  0  0  0  0  0
    8.7400   12.3000   24.5430 C   0  0  0  0  0  0  0  0  0  0  0  0
    9.5770   11.4720   23.8040 C   0  0  0  0  0  0  0  0  0  0  0  0
   10.6040   11.9590   23.1080 N   0  0  0  0  0  0  0  0  0  0  0  0
   10.9890   13.3520   23.3140 C   0  0  0  0  0  0  0  0  0  0  0  0
   10.5970   14.1010   24.2030 O   0  0  0  0  0  0  0  0  0  0  0  0
   11.8880   13.7480   22.3550 N   0  0  0  0  0  0  0  0  0  0  0  0
   11.8510   15.0240   21.8910 C   0  0  0  0  0  0  0  0  0  0  0  0
   11.4410   15.9960   22.5350 O   0  0  0  0  0  0  0  0  0  0  0  0
   12.3830   15.1140   20.4820 C   0  0  0  0  0  0  0  0  0  0  0  0
   11.1130   15.4880   19.3030 Cl  0  0  0  0  0  0  0  0  0  0  0  0
    9.3550   10.0770   23.7830 C   0  0  0  0  0  0  0  0  0  0  0  0
   10.2120    9.1270   22.9990 C   0  0  0  0  0  0  0  0  0  0  0  0
    8.2870    9.5540   24.5240 C   0  0  0  0  0  0  0  0  0  0  0  0
    5.5360    9.5240   25.4600 H   0  0  0  0  0  0  0  0  0  0  0  0
    6.5960    9.3050   26.8560 H   0  0  0  0  0  0  0  0  0  0  0  0
    5.8200   10.8340   26.5690 H   0  0  0  0  0  0  0  0  0  0  0  0
    7.0530   12.4360   25.8260 H   0  0  0  0  0  0  0  0  0  0  0  0
    8.9000   13.3740   24.5640 H   0  0  0  0  0  0  0  0  0  0  0  0
   10.7420   11.6410   22.1490 H   0  0  0  0  0  0  0  0  0  0  0  0
   11.8580   13.0440   21.6050 H   0  0  0  0  0  0  0  0  0  0  0  0
   12.6950   14.1140   20.1820 H   0  0  0  0  0  0  0  0  0  0  0  0
   13.2070   15.7800   20.3340 H   0  0  0  0  0  0  0  0  0  0  0  0
    9.5960    8.3980   22.4650 H   0  0  0  0  0  0  0  0  0  0  0  0
   10.7940    9.6740   22.2540 H   0  0  0  0  0  0  0  0  0  0  0  0
   10.9310    8.6090   23.6440 H   0  0  0  0  0  0  0  0  0  0  0  0
    8.1130    8.4870   24.5200 H   0  0  0  0  0  0  0  0  0  0  0  0
  1  2  1  0
  2  3  2  0
  3  4  1  0
  4  5  2  0
  5  6  1  0
  6  7  1  0
  7  8  2  0
  7  9  1  0
  9 10  1  0
 10 11  2  0
 10 12  1  0
 12 13  1  0
  5 14  1  0
 14 15  1  0
 14 16  2  0
 16  2  1  0
  1 17  1  0
  1 18  1  0
  1 19  1  0
  3 20  1  0
  4 21  1  0
  6 22  1  0
  9 23  1  0
 12 24  1  0
 12 25  1  0
 15 26  1  0
 15 27  1  0
 15 28  1  0
 16 29  1  0
A    1
 C1 
A    2
 C2 
A    3
 C3 
A    4
 C4 
A    5
 C5 
A    6
 N1 
A    7
 C6 
A    8
 O1 
A    9
 N2 
A   10
 C7 
A   11
 O2 
A   12
 C8 
A   13
CL1 
A   14
 C9 
A   15
 C10
A   16
 C11
A   17
 H1 
A   18
 H2 
A   19
 H3 
A   20
 H4 
A   21
 H5 
A   22
 H6 
A   23
 H7 
A   24
 H8 
A   25
 H9 
A   26
 H10
A   27
 H11
A   28
 H12
A   29
 H13
M  END
>  <ref_pdb>  (7) 
x0451_0A

>  <ref_mols>  (7) 
x0451_0A,x0554_0A,x0556_0A,x0566_0A,x0310_0A,x0416_0A

>  <original SMILES>  (7) 
Cc1ccc(NC(=O)NC(=O)CCl)c(C)c1

>  <rationale>  (7) 
info info set:ROCS-electro;Warhead 5.862354655767594Å to Cys110:SG; hbond:S87+S125+H21; hydroph_interaction:V124; 

>  <∆∆G>  (7) 
-10.821899

>  <comRMSD>  (7) 
0.673143

>  <ROCS_TanimotoCombo>  (7) 
0.485

>  <ROCS_ShapeTanimoto>  (7) 
0.3

>  <ROCS_ColorTanimoto>  (7) 
0.185

>  <distance>  (7) 
5.862355

$$$$
EN300_3614537
     RDKit          3D

 43 44  0  0  0  0  0  0  0  0999 V2000
    8.6590    8.0760   23.5840 C   0  0  0  0  0  0  0  0  0  0  0  0
    8.9270    9.5330   23.8550 C   0  0  0  0  0  0  0  0  0  0  0  0
   10.1800    9.9830   23.1150 C   0  0  0  0  0  0  0  0  0  0  0  0
   10.5680   11.4190   23.4030 C   0  0  0  0  0  0  0  0  0  0  0  0
   11.1010   10.6970   24.6090 C   0  0  0  0  0  0  0  0  0  0  0  0
   11.4160   12.2200   22.7660 C   0  0  0  0  0  0  0  0  0  0  0  0
    9.5660   12.3600   23.7720 N   0  0  0  0  0  0  0  0  0  0  0  0
    9.9060   13.6950   23.5320 C   0  0  0  0  0  0  0  0  0  0  0  0
   10.0760   14.5240   24.4110 O   0  0  0  0  0  0  0  0  0  0  0  0
   10.0570   13.9750   22.1980 O   0  0  0  0  0  0  0  0  0  0  0  0
   11.1850   14.7550   21.7140 C   0  0  0  0  0  0  0  0  0  0  0  0
   11.0340   16.1220   22.1460 C   0  0  0  0  0  0  0  0  0  0  0  0
   11.4180   14.6740   20.1920 C   0  0  0  0  0  0  0  0  0  0  0  0
   12.4200   14.2330   22.4250 C   0  0  0  0  0  0  0  0  0  0  0  0
    8.5250   11.9270   24.6320 C   0  0  0  0  0  0  0  0  0  0  0  0
    7.8760   12.8860   25.3760 C   0  0  0  0  0  0  0  0  0  0  0  0
    6.8470   12.5760   26.2460 C   0  0  0  0  0  0  0  0  0  0  0  0
    6.4410   11.1360   26.3670 C   0  0  0  0  0  0  0  0  0  0  0  0
    5.0360   10.6860   27.5410 Br  0  0  0  0  0  0  0  0  0  0  0  0
    7.1350   10.2020   25.5900 C   0  0  0  0  0  0  0  0  0  0  0  0
    8.1780   10.5310   24.7070 C   0  0  0  0  0  0  0  0  0  0  0  0
    8.4420    7.5470   24.5130 H   0  0  0  0  0  0  0  0  0  0  0  0
    9.5540    7.6120   23.1670 H   0  0  0  0  0  0  0  0  0  0  0  0
    7.8540    7.9330   22.8680 H   0  0  0  0  0  0  0  0  0  0  0  0
   10.7580    9.3200   22.4720 H   0  0  0  0  0  0  0  0  0  0  0  0
   10.3840   10.2090   25.2620 H   0  0  0  0  0  0  0  0  0  0  0  0
   11.6840   11.3700   25.2470 H   0  0  0  0  0  0  0  0  0  0  0  0
   11.7870    9.9060   24.2870 H   0  0  0  0  0  0  0  0  0  0  0  0
   10.9220   12.8080   21.9960 H   0  0  0  0  0  0  0  0  0  0  0  0
   12.2870   11.7290   22.3540 H   0  0  0  0  0  0  0  0  0  0  0  0
   11.8440   12.9290   23.4850 H   0  0  0  0  0  0  0  0  0  0  0  0
   11.8530   16.7320   21.7700 H   0  0  0  0  0  0  0  0  0  0  0  0
   10.0900   16.5620   21.8020 H   0  0  0  0  0  0  0  0  0  0  0  0
   11.0380   16.1450   23.2420 H   0  0  0  0  0  0  0  0  0  0  0  0
   10.7330   13.9620   19.7270 H   0  0  0  0  0  0  0  0  0  0  0  0
   12.4270   14.3340   19.9440 H   0  0  0  0  0  0  0  0  0  0  0  0
   11.2800   15.6430   19.7170 H   0  0  0  0  0  0  0  0  0  0  0  0
   13.2460   14.9290   22.2890 H   0  0  0  0  0  0  0  0  0  0  0  0
   12.7090   13.2610   22.0340 H   0  0  0  0  0  0  0  0  0  0  0  0
   12.2480   14.1100   23.5010 H   0  0  0  0  0  0  0  0  0  0  0  0
    8.1450   13.9360   25.3130 H   0  0  0  0  0  0  0  0  0  0  0  0
    6.3550   13.3600   26.8170 H   0  0  0  0  0  0  0  0  0  0  0  0
    6.8440    9.1540   25.6760 H   0  0  0  0  0  0  0  0  0  0  0  0
  1  2  1  0
  2  3  2  0
  3  4  1  0
  4  5  1  0
  4  6  1  0
  4  7  1  0
  7  8  1  0
  8  9  2  0
  8 10  1  0
 10 11  1  0
 11 12  1  0
 11 13  1  0
 11 14  1  0
  7 15  1  0
 15 16  2  0
 16 17  1  0
 17 18  2  0
 18 19  1  0
 18 20  1  0
 20 21  2  0
 21  2  1  0
 21 15  1  0
  1 22  1  0
  1 23  1  0
  1 24  1  0
  3 25  1  0
  5 26  1  0
  5 27  1  0
  5 28  1  0
  6 29  1  0
  6 30  1  0
  6 31  1  0
 12 32  1  0
 12 33  1  0
 12 34  1  0
 13 35  1  0
 13 36  1  0
 13 37  1  0
 14 38  1  0
 14 39  1  0
 14 40  1  0
 16 41  1  0
 17 42  1  0
 20 43  1  0
A    1
 C1 
A    2
 C2 
A    3
 C3 
A    4
 C4 
A    5
 C5 
A    6
 C6 
A    7
 N1 
A    8
 C7 
A    9
 O1 
A   10
 O2 
A   11
 C8 
A   12
 C9 
A   13
 C10
A   14
 C11
A   15
 C12
A   16
 C13
A   17
 C14
A   18
 C15
A   19
BR1 
A   20
 C16
A   21
 C17
A   22
 H1 
A   23
 H2 
A   24
 H3 
A   25
 H4 
A   26
 H5 
A   27
 H6 
A   28
 H7 
A   29
 H8 
A   30
 H9 
A   31
 H10
A   32
 H11
A   33
 H12
A   34
 H13
A   35
 H14
A   36
 H15
A   37
 H16
A   38
 H17
A   39
 H18
A   40
 H19
A   41
 H20
A   42
 H21
A   43
 H22
M  END
>  <ref_pdb>  (8) 
x0451_0A

>  <ref_mols>  (8) 
x0451_0A,x0554_0A,x0556_0A,x0566_0A,x0310_0A,x0416_0A

>  <original SMILES>  (8) 
CC1=CC(C)(C)N(C(=O)OC(C)(C)C)c2ccc(Br)cc21

>  <rationale>  (8) 
info info set:ROCS-BB-0RB;Warhead nanÅ to Cys110:SG; hydroph_interaction:D109; 

>  <∆∆G>  (8) 
-10.780002

>  <comRMSD>  (8) 
1.003601

>  <ROCS_TanimotoCombo>  (8) 
0.483

>  <ROCS_ShapeTanimoto>  (8) 
0.363

>  <ROCS_ColorTanimoto>  (8) 
0.12

>  <distance>  (8) 
nan

$$$$
EN300_28297190
     RDKit          3D

 41 42  0  0  0  0  0  0  0  0999 V2000
   11.0120    9.4300   24.5850 C   0  0  0  0  0  0  0  0  0  0  0  0
    9.9230    9.7700   23.6730 C   0  0  0  0  0  0  0  0  0  0  0  0
   10.0920    8.7980   22.5690 C   0  0  0  0  0  0  0  0  0  0  0  0
    8.5110    9.5490   24.2650 C   0  0  0  0  0  0  0  0  0  0  0  0
    8.0100   10.8400   24.8590 C   0  0  0  0  0  0  0  0  0  0  0  0
    7.0590   10.4440   25.7500 C   0  0  0  0  0  0  0  0  0  0  0  0
    6.3400   11.5400   26.5480 C   0  0  0  0  0  0  0  0  0  0  0  0
    4.9930   11.1000   27.8110 Br  0  0  0  0  0  0  0  0  0  0  0  0
    6.7920   12.9800   26.2440 C   0  0  0  0  0  0  0  0  0  0  0  0
    7.7940   13.2020   25.2860 N   0  0  0  0  0  0  0  0  0  0  0  0
    8.3900   12.1220   24.5990 C   0  0  0  0  0  0  0  0  0  0  0  0
    9.4210   12.2970   23.5900 N   0  0  0  0  0  0  0  0  0  0  0  0
    9.9540   13.5640   23.4060 C   0  0  0  0  0  0  0  0  0  0  0  0
   10.2430   14.2950   24.3480 O   0  0  0  0  0  0  0  0  0  0  0  0
   10.1220   13.8890   22.2330 O   0  0  0  0  0  0  0  0  0  0  0  0
   11.3440   14.5520   21.8710 C   0  0  0  0  0  0  0  0  0  0  0  0
   12.4190   14.0030   22.5680 C   0  0  0  0  0  0  0  0  0  0  0  0
   11.1490   15.9920   22.2840 C   0  0  0  0  0  0  0  0  0  0  0  0
   11.7520   14.5180   20.3970 C   0  0  0  0  0  0  0  0  0  0  0  0
   10.3330   11.2060   23.3490 C   0  0  0  0  0  0  0  0  0  0  0  0
   10.6980    9.6700   25.5630 H   0  0  0  0  0  0  0  0  0  0  0  0
   11.2210    8.3820   24.5490 H   0  0  0  0  0  0  0  0  0  0  0  0
   11.9230    9.9830   24.3540 H   0  0  0  0  0  0  0  0  0  0  0  0
   10.7890    8.0000   22.7820 H   0  0  0  0  0  0  0  0  0  0  0  0
    9.1420    8.3100   22.3400 H   0  0  0  0  0  0  0  0  0  0  0  0
   10.4340    9.3160   21.6780 H   0  0  0  0  0  0  0  0  0  0  0  0
    7.8620    9.1830   23.4760 H   0  0  0  0  0  0  0  0  0  0  0  0
    8.5850    8.7400   24.9940 H   0  0  0  0  0  0  0  0  0  0  0  0
    6.8100    9.3870   25.8970 H   0  0  0  0  0  0  0  0  0  0  0  0
    6.3670   13.8500   26.7390 H   0  0  0  0  0  0  0  0  0  0  0  0
   13.2660   14.6800   22.5540 H   0  0  0  0  0  0  0  0  0  0  0  0
   12.7180   13.0460   22.1340 H   0  0  0  0  0  0  0  0  0  0  0  0
   12.1660   13.8340   23.6200 H   0  0  0  0  0  0  0  0  0  0  0  0
   11.9230   16.6360   21.8650 H   0  0  0  0  0  0  0  0  0  0  0  0
   11.1570   16.1080   23.3730 H   0  0  0  0  0  0  0  0  0  0  0  0
   10.1850   16.3560   21.9040 H   0  0  0  0  0  0  0  0  0  0  0  0
   12.3830   13.6540   20.1960 H   0  0  0  0  0  0  0  0  0  0  0  0
   10.8750   14.4870   19.7380 H   0  0  0  0  0  0  0  0  0  0  0  0
   12.3250   15.4150   20.1330 H   0  0  0  0  0  0  0  0  0  0  0  0
   10.6830   11.2250   22.3470 H   0  0  0  0  0  0  0  0  0  0  0  0
   11.2190   11.4620   23.9430 H   0  0  0  0  0  0  0  0  0  0  0  0
  1  2  1  0
  2  3  1  0
  2  4  1  0
  4  5  1  0
  5  6  2  0
  6  7  1  0
  7  8  1  0
  7  9  2  0
  9 10  1  0
 10 11  2  0
 11 12  1  0
 12 13  1  0
 13 14  2  0
 13 15  1  0
 15 16  1  0
 16 17  1  0
 16 18  1  0
 16 19  1  0
 12 20  1  0
 20  2  1  0
 11  5  1  0
  1 21  1  0
  1 22  1  0
  1 23  1  0
  3 24  1  0
  3 25  1  0
  3 26  1  0
  4 27  1  0
  4 28  1  0
  6 29  1  0
  9 30  1  0
 17 31  1  0
 17 32  1  0
 17 33  1  0
 18 34  1  0
 18 35  1  0
 18 36  1  0
 19 37  1  0
 19 38  1  0
 19 39  1  0
 20 40  1  0
 20 41  1  0
A    1
 C1 
A    2
 C2 
A    3
 C3 
A    4
 C4 
A    5
 C5 
A    6
 C6 
A    7
 C7 
A    8
BR1 
A    9
 C8 
A   10
 N1 
A   11
 C9 
A   12
 N2 
A   13
 C10
A   14
 O1 
A   15
 O2 
A   16
 C11
A   17
 C12
A   18
 C13
A   19
 C14
A   20
 C15
A   21
 H1 
A   22
 H2 
A   23
 H3 
A   24
 H4 
A   25
 H5 
A   26
 H6 
A   27
 H7 
A   28
 H8 
A   29
 H9 
A   30
 H10
A   31
 H11
A   32
 H12
A   33
 H13
A   34
 H14
A   35
 H15
A   36
 H16
A   37
 H17
A   38
 H18
A   39
 H19
A   40
 H20
A   41
 H21
M  END
>  <ref_pdb>  (9) 
x0451_0A

>  <ref_mols>  (9) 
x0451_0A,x0554_0A,x0556_0A,x0566_0A,x0310_0A,x0416_0A

>  <original SMILES>  (9) 
CC1(C)Cc2cc(Br)cnc2N(C(=O)OC(C)(C)C)C1

>  <rationale>  (9) 
info info set:ROCS-BB-0RB;Warhead nanÅ to Cys110:SG; hydroph_interaction:V124+D109; 

>  <∆∆G>  (9) 
-10.602566

>  <comRMSD>  (9) 
0.550473

>  <ROCS_TanimotoCombo>  (9) 
0.479

>  <ROCS_ShapeTanimoto>  (9) 
0.363

>  <ROCS_ColorTanimoto>  (9) 
0.116

>  <distance>  (9) 
nan

$$$$
Z4899546860
     RDKit          3D

 49 51  0  0  0  0  0  0  0  0999 V2000
   15.0190   10.6810   30.4160 C   0  0  0  0  0  0  0  0  0  0  0  0
   16.1120   11.1720   29.5400 C   0  0  0  0  0  0  0  0  0  0  0  0
   14.9570   11.8670   28.7870 C   0  0  0  0  0  0  0  0  0  0  0  0
   14.1430   12.5940   29.3380 O   0  0  0  0  0  0  0  0  0  0  0  0
   14.9920   11.5640   27.4500 N   0  0  0  0  0  0  0  0  0  0  0  0
   14.0730   12.1040   26.4420 C   0  0  0  0  0  0  0  0  0  0  0  0
   14.4250   11.7400   25.0330 C   0  0  0  0  0  0  0  0  0  0  0  0
   13.5000   12.2940   23.9820 C   0  0  0  0  0  0  0  0  0  0  0  0
   12.4060   13.0940   24.3390 C   0  0  0  0  0  0  0  0  0  0  0  0
   11.5190   13.6500   23.2140 C   0  0  0  0  0  0  0  0  0  0  0  0
   10.0780   13.5490   23.5630 C   0  0  0  0  0  0  0  0  0  0  0  0
    9.3260   14.5330   23.5090 O   0  0  0  0  0  0  0  0  0  0  0  0
    9.6080   12.3150   23.9480 N   0  0  0  0  0  0  0  0  0  0  0  0
   10.3910   11.1050   23.5720 C   0  0  0  0  0  0  0  0  0  0  0  0
    9.6610    9.8680   24.0860 C   0  0  2  0  0  0  0  0  0  0  0  0
    9.3190    8.8120   23.0470 C   0  0  0  0  0  0  0  0  0  0  0  0
    8.5030   10.5550   24.8020 C   0  0  0  0  0  0  0  0  0  0  0  0
    7.4240    9.8290   25.5590 C   0  0  0  0  0  0  0  0  0  0  0  0
    6.4450   10.5550   26.1940 C   0  0  0  0  0  0  0  0  0  0  0  0
    6.5120   11.9630   26.0980 C   0  0  0  0  0  0  0  0  0  0  0  0
    5.2780   12.9260   26.9330 S   0  0  0  0  0  6  0  0  0  0  0  0
    5.9520   12.9940   28.4770 N   0  0  0  0  0  0  0  0  0  0  0  0
    4.0580   12.1610   27.0250 O   0  0  0  0  0  0  0  0  0  0  0  0
    5.3180   14.2850   26.4460 O   0  0  0  0  0  0  0  0  0  0  0  0
    7.5040   12.6430   25.3840 C   0  0  0  0  0  0  0  0  0  0  0  0
    8.5070   11.9250   24.7270 C   0  0  0  0  0  0  0  0  0  0  0  0
   12.1400   13.3780   25.6920 C   0  0  0  0  0  0  0  0  0  0  0  0
   12.9590   12.8920   26.7290 C   0  0  0  0  0  0  0  0  0  0  0  0
   13.9770   10.9490   30.2290 H   0  0  0  0  0  0  0  0  0  0  0  0
   15.2390   10.0360   31.2720 H   0  0  0  0  0  0  0  0  0  0  0  0
   17.1880   11.0940   29.4570 H   0  0  0  0  0  0  0  0  0  0  0  0
   15.8750   11.2800   27.0590 H   0  0  0  0  0  0  0  0  0  0  0  0
   15.3070   11.1130   24.8650 H   0  0  0  0  0  0  0  0  0  0  0  0
   13.6820   12.0770   22.9410 H   0  0  0  0  0  0  0  0  0  0  0  0
   11.7850   13.1150   22.2980 H   0  0  0  0  0  0  0  0  0  0  0  0
   11.8250   14.6950   23.0720 H   0  0  0  0  0  0  0  0  0  0  0  0
   11.3950   11.1660   24.0060 H   0  0  0  0  0  0  0  0  0  0  0  0
   10.5140   11.0920   22.4960 H   0  0  0  0  0  0  0  0  0  0  0  0
   10.2870    9.4010   24.8530 H   0  0  0  0  0  0  0  0  0  0  0  0
    9.7360    9.1000   22.0770 H   0  0  0  0  0  0  0  0  0  0  0  0
    8.2400    8.6830   22.9600 H   0  0  0  0  0  0  0  0  0  0  0  0
    9.7510    7.8430   23.3080 H   0  0  0  0  0  0  0  0  0  0  0  0
    7.5100    8.7480   25.5510 H   0  0  0  0  0  0  0  0  0  0  0  0
    5.6570   10.0510   26.7520 H   0  0  0  0  0  0  0  0  0  0  0  0
    5.2640   13.0530   29.2150 H   0  0  0  0  0  0  0  0  0  0  0  0
    6.6150   13.7710   28.5110 H   0  0  0  0  0  0  0  0  0  0  0  0
    7.4620   13.7230   25.3660 H   0  0  0  0  0  0  0  0  0  0  0  0
   11.2840   13.9950   25.9550 H   0  0  0  0  0  0  0  0  0  0  0  0
   12.7040   13.1500   27.7500 H   0  0  0  0  0  0  0  0  0  0  0  0
  1  2  2  0
  2  3  1  0
  3  4  2  0
  3  5  1  0
  5  6  1  0
  6  7  2  0
  7  8  1  0
  8  9  2  0
  9 10  1  0
 10 11  1  0
 11 12  2  0
 11 13  1  0
 13 14  1  0
 14 15  1  0
 15 16  1  0
 15 17  1  0
 17 18  2  0
 18 19  1  0
 19 20  2  0
 20 21  1  0
 21 22  1  0
 21 23  2  0
 21 24  2  0
 20 25  1  0
 25 26  2  0
  9 27  1  0
 27 28  2  0
 28  6  1  0
 26 13  1  0
 26 17  1  0
  1 29  1  0
  1 30  1  0
  2 31  1  0
  5 32  1  0
  7 33  1  0
  8 34  1  0
 10 35  1  0
 10 36  1  0
 14 37  1  0
 14 38  1  0
 15 39  1  1
 16 40  1  0
 16 41  1  0
 16 42  1  0
 18 43  1  0
 19 44  1  0
 22 45  1  0
 22 46  1  0
 25 47  1  0
 27 48  1  0
 28 49  1  0
A    1
 C1 
A    2
 C2 
A    3
 C3 
A    4
 O1 
A    5
 N1 
A    6
 C4 
A    7
 C5 
A    8
 C6 
A    9
 C7 
A   10
 C8 
A   11
 C9 
A   12
 O2 
A   13
 N2 
A   14
 C10
A   15
 C11
A   16
 C12
A   17
 C13
A   18
 C14
A   19
 C15
A   20
 C16
A   21
 S1 
A   22
 N3 
A   23
 O3 
A   24
 O4 
A   25
 C17
A   26
 C18
A   27
 C19
A   28
 C20
A   29
 H1 
A   30
 H2 
A   31
 H3 
A   32
 H4 
A   33
 H5 
A   34
 H6 
A   35
 H7 
A   36
 H8 
A   37
 H9 
A   38
 H10
A   39
 H11
A   40
 H12
A   41
 H13
A   42
 H14
A   43
 H15
A   44
 H16
A   45
 H17
A   46
 H18
A   47
 H19
A   48
 H20
A   49
 H21
M  END
>  <ref_pdb>  (10) 
x0451_0A

>  <ref_mols>  (10) 
x0451_0A,x0554_0A,x0556_0A,x0566_0A,x0310_0A,x0416_0A

>  <original SMILES>  (10) 
C=CC(=O)Nc1ccc(CC(=O)N2C[C@H](C)c3ccc(S(N)(=O)=O)cc32)cc1

>  <rationale>  (10) 
info info set:ROCS-cov2;Warhead 7.340762206337977Å to Cys110:SG; hydroph_interaction:P107+A110+V124; pistack:Y89; 

>  <∆∆G>  (10) 
-10.464921

>  <comRMSD>  (10) 
0.376844

>  <ROCS_TanimotoCombo>  (10) 
0.524

>  <ROCS_ShapeTanimoto>  (10) 
0.365

>  <ROCS_ColorTanimoto>  (10) 
0.159

>  <distance>  (10) 
7.340762

$$$$
EN300_26666394
     RDKit          3D

 35 36  0  0  0  0  0  0  0  0999 V2000
   12.1720   14.8380   19.8890 C   0  0  0  0  0  0  0  0  0  0  0  0
   11.4310   14.8260   21.2460 C   0  0  0  0  0  0  0  0  0  0  0  0
    9.9180   14.8780   20.9850 C   0  0  0  0  0  0  0  0  0  0  0  0
   11.8270   16.0500   22.0070 C   0  0  0  0  0  0  0  0  0  0  0  0
   11.8550   13.7680   22.1280 O   0  0  0  0  0  0  0  0  0  0  0  0
   11.1170   13.4240   23.1940 C   0  0  0  0  0  0  0  0  0  0  0  0
   10.8380   14.1450   24.1420 O   0  0  0  0  0  0  0  0  0  0  0  0
   10.7500   12.1460   23.0110 N   0  0  0  0  0  0  0  0  0  0  0  0
    9.6690   11.6990   23.7380 C   0  0  0  0  0  0  0  0  0  0  0  0
    8.7610   12.5860   24.4990 C   0  0  0  0  0  0  0  0  0  0  0  0
    7.6750   11.8510   25.2190 C   0  0  0  0  0  0  0  0  0  0  0  0
    6.7560   12.7000   25.9910 C   0  0  0  0  0  0  0  0  0  0  0  0
    5.6470   12.0340   26.7410 C   0  0  0  0  0  0  0  0  0  0  0  0
    5.4600   10.6620   26.7360 C   0  0  0  0  0  0  0  0  0  0  0  0
    6.4880    9.9070   25.8940 C   0  0  0  0  0  0  0  0  0  0  0  0
    7.5230   10.5010   25.1840 C   0  0  0  0  0  0  0  0  0  0  0  0
    8.3670    9.7320   24.4670 N   0  0  0  0  0  0  0  0  0  0  0  0
    9.3860   10.3170   23.7830 C   0  0  0  0  0  0  0  0  0  0  0  0
   10.3920    9.1460   22.8990 S   0  0  0  0  0  0  0  0  0  0  0  0
   12.2860   13.8940   19.3670 H   0  0  0  0  0  0  0  0  0  0  0  0
   13.0990   15.3870   19.9090 H   0  0  0  0  0  0  0  0  0  0  0  0
   11.5470   15.4390   19.2230 H   0  0  0  0  0  0  0  0  0  0  0  0
    9.3180   14.0960   21.4360 H   0  0  0  0  0  0  0  0  0  0  0  0
    9.4040   15.7920   21.2710 H   0  0  0  0  0  0  0  0  0  0  0  0
    9.7630   14.7750   19.9080 H   0  0  0  0  0  0  0  0  0  0  0  0
   12.9150   16.0620   22.0630 H   0  0  0  0  0  0  0  0  0  0  0  0
   11.4730   16.9580   21.5250 H   0  0  0  0  0  0  0  0  0  0  0  0
   11.4410   16.0170   23.0330 H   0  0  0  0  0  0  0  0  0  0  0  0
   10.8560   11.8230   22.0420 H   0  0  0  0  0  0  0  0  0  0  0  0
    8.8130   13.6640   24.5790 H   0  0  0  0  0  0  0  0  0  0  0  0
    6.8850   13.7860   26.0120 H   0  0  0  0  0  0  0  0  0  0  0  0
    4.9520   12.6550   27.3220 H   0  0  0  0  0  0  0  0  0  0  0  0
    4.6620   10.1610   27.2790 H   0  0  0  0  0  0  0  0  0  0  0  0
    6.4100    8.8600   25.8460 H   0  0  0  0  0  0  0  0  0  0  0  0
    9.6160    9.1790   21.8030 H   0  0  0  0  0  0  0  0  0  0  0  0
  1  2  1  0
  2  3  1  0
  2  4  1  0
  2  5  1  0
  5  6  1  0
  6  7  2  0
  6  8  1  0
  8  9  1  0
  9 10  2  0
 10 11  1  0
 11 12  2  0
 12 13  1  0
 13 14  2  0
 14 15  1  0
 15 16  2  0
 16 17  1  0
 17 18  2  0
 18 19  1  0
 18  9  1  0
 16 11  1  0
  1 20  1  0
  1 21  1  0
  1 22  1  0
  3 23  1  0
  3 24  1  0
  3 25  1  0
  4 26  1  0
  4 27  1  0
  4 28  1  0
  8 29  1  0
 10 30  1  0
 12 31  1  0
 13 32  1  0
 14 33  1  0
 15 34  1  0
 19 35  1  0
A    1
 C1 
A    2
 C2 
A    3
 C3 
A    4
 C4 
A    5
 O1 
A    6
 C5 
A    7
 O2 
A    8
 N1 
A    9
 C6 
A   10
 C7 
A   11
 C8 
A   12
 C9 
A   13
 C10
A   14
 C11
A   15
 C12
A   16
 C13
A   17
 N2 
A   18
 C14
A   19
 S1 
A   20
 H1 
A   21
 H2 
A   22
 H3 
A   23
 H4 
A   24
 H5 
A   25
 H6 
A   26
 H7 
A   27
 H8 
A   28
 H9 
A   29
 H10
A   30
 H11
A   31
 H12
A   32
 H13
A   33
 H14
A   34
 H15
A   35
 H16
M  END
>  <ref_pdb>  (11) 
x0451_0A

>  <ref_mols>  (11) 
x0451_0A,x0554_0A,x0556_0A,x0566_0A,x0310_0A,x0416_0A

>  <original SMILES>  (11) 
CC(C)(C)OC(=O)Nc1cc2ccccc2nc1S

>  <rationale>  (11) 
info info set:ROCS-BB-1RB;Warhead nanÅ to Cys110:SG; hbond:E106; hydroph_interaction:Y89+Y90; 

>  <∆∆G>  (11) 
-10.343657

>  <comRMSD>  (11) 
0.465687

>  <ROCS_TanimotoCombo>  (11) 
0.508

>  <ROCS_ShapeTanimoto>  (11) 
0.346

>  <ROCS_ColorTanimoto>  (11) 
0.162

>  <distance>  (11) 
nan

$$$$
EN300_28299116
     RDKit          3D

 44 45  0  0  0  0  0  0  0  0999 V2000
    8.5660    8.4390   24.2680 C   0  0  0  0  0  0  0  0  0  0  0  0
    8.7150    9.7910   23.8860 N   0  0  0  0  0  0  0  0  0  0  0  0
    8.1930   10.7580   24.6580 C   0  0  0  0  0  0  0  0  0  0  0  0
    7.1330   10.5230   25.5600 C   0  0  0  0  0  0  0  0  0  0  0  0
    6.5560   11.4890   26.3770 C   0  0  0  0  0  0  0  0  0  0  0  0
    5.1360   11.0430   27.5450 Br  0  0  0  0  0  0  0  0  0  0  0  0
    7.0260   12.7990   26.3350 C   0  0  0  0  0  0  0  0  0  0  0  0
    8.0780   13.1370   25.4720 C   0  0  0  0  0  0  0  0  0  0  0  0
    8.7030   12.0750   24.5820 C   0  0  0  0  0  0  0  0  0  0  0  0
    9.7460   12.3720   23.7130 N   0  0  0  0  0  0  0  0  0  0  0  0
   10.4410   13.5620   23.5070 C   0  0  0  0  0  0  0  0  0  0  0  0
   10.4020   14.5090   24.2870 O   0  0  0  0  0  0  0  0  0  0  0  0
   11.2280   13.5450   22.2770 O   0  0  0  0  0  0  0  0  0  0  0  0
   11.3560   14.6840   21.3880 C   0  0  0  0  0  0  0  0  0  0  0  0
   12.4840   15.4050   21.6780 C   0  0  0  0  0  0  0  0  0  0  0  0
   11.3520   14.3510   19.8940 C   0  0  0  0  0  0  0  0  0  0  0  0
   10.1400   15.5540   21.7150 C   0  0  0  0  0  0  0  0  0  0  0  0
   10.5990   11.2870   23.3270 C   0  0  0  0  0  0  0  0  0  0  0  0
   10.0440   10.0260   23.4490 C   0  0  0  0  0  0  0  0  0  0  0  0
   10.2760    9.0530   22.5110 C   0  0  0  0  0  0  0  0  0  0  0  0
   10.9620    9.5520   24.5490 C   0  0  0  0  0  0  0  0  0  0  0  0
    8.1620    7.8430   23.4470 H   0  0  0  0  0  0  0  0  0  0  0  0
    7.9870    8.3580   25.1780 H   0  0  0  0  0  0  0  0  0  0  0  0
    9.5520    8.0740   24.4720 H   0  0  0  0  0  0  0  0  0  0  0  0
    6.7240    9.5100   25.6330 H   0  0  0  0  0  0  0  0  0  0  0  0
    6.5880   13.5670   26.9650 H   0  0  0  0  0  0  0  0  0  0  0  0
    8.4100   14.1700   25.4760 H   0  0  0  0  0  0  0  0  0  0  0  0
   12.1660   16.3710   22.0710 H   0  0  0  0  0  0  0  0  0  0  0  0
   13.0500   15.6280   20.7730 H   0  0  0  0  0  0  0  0  0  0  0  0
   13.1810   14.9700   22.3750 H   0  0  0  0  0  0  0  0  0  0  0  0
   10.4880   13.7510   19.6370 H   0  0  0  0  0  0  0  0  0  0  0  0
   12.2560   13.8080   19.5980 H   0  0  0  0  0  0  0  0  0  0  0  0
   11.3010   15.2500   19.2730 H   0  0  0  0  0  0  0  0  0  0  0  0
   10.1480   15.8950   22.7560 H   0  0  0  0  0  0  0  0  0  0  0  0
    9.2080   15.0020   21.5380 H   0  0  0  0  0  0  0  0  0  0  0  0
   10.1020   16.4370   21.0650 H   0  0  0  0  0  0  0  0  0  0  0  0
   11.4940   11.4300   23.9270 H   0  0  0  0  0  0  0  0  0  0  0  0
   10.9330   11.6170   22.3860 H   0  0  0  0  0  0  0  0  0  0  0  0
    9.3340    8.6020   22.2020 H   0  0  0  0  0  0  0  0  0  0  0  0
   10.7850    9.4490   21.6460 H   0  0  0  0  0  0  0  0  0  0  0  0
   10.8890    8.2470   22.9100 H   0  0  0  0  0  0  0  0  0  0  0  0
   11.1710    8.4920   24.4850 H   0  0  0  0  0  0  0  0  0  0  0  0
   10.4880    9.7500   25.4920 H   0  0  0  0  0  0  0  0  0  0  0  0
   11.9290   10.0660   24.5330 H   0  0  0  0  0  0  0  0  0  0  0  0
  1  2  1  0
  2  3  1  0
  3  4  2  0
  4  5  1  0
  5  6  1  0
  5  7  2  0
  7  8  1  0
  8  9  2  0
  9 10  1  0
 10 11  1  0
 11 12  2  0
 11 13  1  0
 13 14  1  0
 14 15  1  0
 14 16  1  0
 14 17  1  0
 10 18  1  0
 18 19  1  0
 19 20  1  0
 19 21  1  0
 19  2  1  0
  9  3  1  0
  1 22  1  0
  1 23  1  0
  1 24  1  0
  4 25  1  0
  7 26  1  0
  8 27  1  0
 15 28  1  0
 15 29  1  0
 15 30  1  0
 16 31  1  0
 16 32  1  0
 16 33  1  0
 17 34  1  0
 17 35  1  0
 17 36  1  0
 18 37  1  0
 18 38  1  0
 20 39  1  0
 20 40  1  0
 20 41  1  0
 21 42  1  0
 21 43  1  0
 21 44  1  0
A    1
 C1 
A    2
 N1 
A    3
 C2 
A    4
 C3 
A    5
 C4 
A    6
BR1 
A    7
 C5 
A    8
 C6 
A    9
 C7 
A   10
 N2 
A   11
 C8 
A   12
 O1 
A   13
 O2 
A   14
 C9 
A   15
 C10
A   16
 C11
A   17
 C12
A   18
 C13
A   19
 C14
A   20
 C15
A   21
 C16
A   22
 H1 
A   23
 H2 
A   24
 H3 
A   25
 H4 
A   26
 H5 
A   27
 H6 
A   28
 H7 
A   29
 H8 
A   30
 H9 
A   31
 H10
A   32
 H11
A   33
 H12
A   34
 H13
A   35
 H14
A   36
 H15
A   37
 H16
A   38
 H17
A   39
 H18
A   40
 H19
A   41
 H20
A   42
 H21
A   43
 H22
A   44
 H23
M  END
>  <ref_pdb>  (12) 
x0451_0A

>  <ref_mols>  (12) 
x0451_0A,x0554_0A,x0556_0A,x0566_0A,x0310_0A,x0416_0A

>  <original SMILES>  (12) 
CN1c2cc(Br)ccc2N(C(=O)OC(C)(C)C)CC1(C)C

>  <rationale>  (12) 
info info set:ROCS-BB-0RB;Warhead nanÅ to Cys110:SG; hydroph_interaction:Y89+V124; 

>  <∆∆G>  (12) 
-10.271668

>  <comRMSD>  (12) 
0.615537

>  <ROCS_TanimotoCombo>  (12) 
0.496

>  <ROCS_ShapeTanimoto>  (12) 
0.377

>  <ROCS_ColorTanimoto>  (12) 
0.119

>  <distance>  (12) 
nan

$$$$
Z56336010
     RDKit          3D

 50 52  0  0  0  0  0  0  0  0999 V2000
   10.7150   16.3650   18.5190 C   0  0  0  0  0  0  0  0  0  0  0  0
   11.4790   15.4790   19.4590 C   0  0  0  0  0  0  0  0  0  0  0  0
   11.1650   15.6980   20.8000 C   0  0  0  0  0  0  0  0  0  0  0  0
   12.0120   15.2160   21.7850 C   0  0  0  0  0  0  0  0  0  0  0  0
   11.8500   13.8920   22.3200 N   0  0  0  0  0  0  0  0  0  0  0  0
   10.9650   13.7380   23.3060 C   0  0  0  0  0  0  0  0  0  0  0  0
   10.8880   14.4300   24.3050 O   0  0  0  0  0  0  0  0  0  0  0  0
   10.2010   12.7230   22.9870 N   0  0  0  0  0  0  0  0  0  0  0  0
    9.3230   12.0390   23.7070 C   0  0  0  0  0  0  0  0  0  0  0  0
    8.4460   12.6630   24.4410 N   0  0  0  0  0  0  0  0  0  0  0  0
    7.6900   11.6740   25.0580 C   0  0  0  0  0  0  0  0  0  0  0  0
    6.5000   11.9350   25.9740 C   0  0  0  0  0  0  0  0  0  0  0  0
    6.1070   13.3880   26.2310 C   0  0  0  0  0  0  0  0  0  0  0  0
    5.7710   14.4890   26.3830 N   0  0  0  0  0  0  0  0  0  0  0  0
    5.7220   10.8350   26.5820 C   0  0  0  0  0  0  0  0  0  0  0  0
    5.5660    9.8220   25.9370 O   0  0  0  0  0  0  0  0  0  0  0  0
    5.2180   10.9980   27.8540 N   0  0  0  0  0  0  0  0  0  0  0  0
    5.6610   11.9350   28.8940 C   0  0  0  0  0  0  0  0  0  0  0  0
    5.4940   11.1900   30.0670 C   0  0  0  0  0  0  0  0  0  0  0  0
    4.8520    9.9240   29.7330 C   0  0  0  0  0  0  0  0  0  0  0  0
    4.3470    9.9870   28.4470 C   0  0  0  0  0  0  0  0  0  0  0  0
    8.2320   10.3800   24.6470 C   0  0  0  0  0  0  0  0  0  0  0  0
    7.9270    9.1110   24.9450 C   0  0  0  0  0  0  0  0  0  0  0  0
    8.6580    8.0840   24.3320 C   0  0  0  0  0  0  0  0  0  0  0  0
    9.6730    8.3460   23.4430 C   0  0  0  0  0  0  0  0  0  0  0  0
   10.0070    9.6320   23.1370 C   0  0  0  0  0  0  0  0  0  0  0  0
    9.2630   10.6150   23.7640 C   0  0  0  0  0  0  0  0  0  0  0  0
   11.3470   16.6970   17.6890 H   0  0  0  0  0  0  0  0  0  0  0  0
   10.3480   17.2610   19.0340 H   0  0  0  0  0  0  0  0  0  0  0  0
    9.8630   15.8160   18.1060 H   0  0  0  0  0  0  0  0  0  0  0  0
   12.4650   15.4340   19.0280 H   0  0  0  0  0  0  0  0  0  0  0  0
   11.1030   14.4710   19.2520 H   0  0  0  0  0  0  0  0  0  0  0  0
   10.1610   15.3020   20.9970 H   0  0  0  0  0  0  0  0  0  0  0  0
   11.0820   16.7780   20.9540 H   0  0  0  0  0  0  0  0  0  0  0  0
   11.8920   15.8740   22.6350 H   0  0  0  0  0  0  0  0  0  0  0  0
   13.0480   15.3320   21.4540 H   0  0  0  0  0  0  0  0  0  0  0  0
   11.7710   13.1280   21.6420 H   0  0  0  0  0  0  0  0  0  0  0  0
   10.5360   12.2100   22.1530 H   0  0  0  0  0  0  0  0  0  0  0  0
    5.0710   12.8560   28.8850 H   0  0  0  0  0  0  0  0  0  0  0  0
    6.7170   12.1740   28.7370 H   0  0  0  0  0  0  0  0  0  0  0  0
    6.3810   11.1040   30.6880 H   0  0  0  0  0  0  0  0  0  0  0  0
    4.8040   11.7700   30.6910 H   0  0  0  0  0  0  0  0  0  0  0  0
    4.0280    9.7360   30.4310 H   0  0  0  0  0  0  0  0  0  0  0  0
    5.5560    9.1020   29.8410 H   0  0  0  0  0  0  0  0  0  0  0  0
    3.3350   10.4050   28.4540 H   0  0  0  0  0  0  0  0  0  0  0  0
    4.3270    9.0880   27.8360 H   0  0  0  0  0  0  0  0  0  0  0  0
    7.1390    8.8650   25.6350 H   0  0  0  0  0  0  0  0  0  0  0  0
    8.4280    7.0480   24.5550 H   0  0  0  0  0  0  0  0  0  0  0  0
   10.2110    7.5330   22.9890 H   0  0  0  0  0  0  0  0  0  0  0  0
   10.8100    9.8410   22.4420 H   0  0  0  0  0  0  0  0  0  0  0  0
  1  2  1  0
  2  3  1  0
  3  4  1  0
  4  5  1  0
  5  6  1  0
  6  7  2  0
  6  8  1  0
  8  9  1  0
  9 10  2  0
 10 11  1  0
 11 12  2  3
 12 13  1  0
 13 14  3  0
 12 15  1  0
 15 16  2  0
 15 17  1  0
 17 18  1  0
 18 19  1  0
 19 20  1  0
 20 21  1  0
 11 22  1  0
 22 23  2  0
 23 24  1  0
 24 25  2  0
 25 26  1  0
 26 27  2  0
 27  9  1  0
 21 17  1  0
 27 22  1  0
  1 28  1  0
  1 29  1  0
  1 30  1  0
  2 31  1  0
  2 32  1  0
  3 33  1  0
  3 34  1  0
  4 35  1  0
  4 36  1  0
  5 37  1  0
  8 38  1  0
 18 39  1  0
 18 40  1  0
 19 41  1  0
 19 42  1  0
 20 43  1  0
 20 44  1  0
 21 45  1  0
 21 46  1  0
 23 47  1  0
 24 48  1  0
 25 49  1  0
 26 50  1  0
A    1
 C1 
A    2
 C2 
A    3
 C3 
A    4
 C4 
A    5
 N1 
A    6
 C5 
A    7
 O1 
A    8
 N2 
A    9
 C6 
A   10
 N3 
A   11
 C7 
A   12
 C8 
A   13
 C9 
A   14
 N4 
A   15
 C10
A   16
 O2 
A   17
 N5 
A   18
 C11
A   19
 C12
A   20
 C13
A   21
 C14
A   22
 C15
A   23
 C16
A   24
 C17
A   25
 C18
A   26
 C19
A   27
 C20
A   28
 H1 
A   29
 H2 
A   30
 H3 
A   31
 H4 
A   32
 H5 
A   33
 H6 
A   34
 H7 
A   35
 H8 
A   36
 H9 
A   37
 H10
A   38
 H11
A   39
 H12
A   40
 H13
A   41
 H14
A   42
 H15
A   43
 H16
A   44
 H17
A   45
 H18
A   46
 H19
A   47
 H20
A   48
 H21
A   49
 H22
A   50
 H23
M  END
>  <ref_pdb>  (13) 
x0451_0A

>  <ref_mols>  (13) 
x0451_0A,x0554_0A,x0556_0A,x0566_0A,x0310_0A,x0416_0A

>  <original SMILES>  (13) 
CCCCNC(=O)NC1=NC(=C(C#N)C(=O)N2CCCC2)c2ccccc21

>  <rationale>  (13) 
info info set:ROCS-cov2;Warhead 6.537803392577663Å to Cys110:SG; hbond:S125; hydroph_interaction:Y90+V124+D109; 

>  <∆∆G>  (13) 
-10.102837

>  <comRMSD>  (13) 
0.59212

>  <ROCS_TanimotoCombo>  (13) 
0.522

>  <ROCS_ShapeTanimoto>  (13) 
0.365

>  <ROCS_ColorTanimoto>  (13) 
0.157

>  <distance>  (13) 
6.537803

$$$$
EN300_28297353
     RDKit          3D

 40 41  0  0  0  0  0  0  0  0999 V2000
   10.7560   15.9070   22.2390 C   0  0  0  0  0  0  0  0  0  0  0  0
   11.2460   14.5200   21.8670 C   0  0  0  0  0  0  0  0  0  0  0  0
   11.4800   14.4760   20.3560 C   0  0  0  0  0  0  0  0  0  0  0  0
   12.4950   14.2120   22.6170 C   0  0  0  0  0  0  0  0  0  0  0  0
   10.2160   13.6280   22.3700 O   0  0  0  0  0  0  0  0  0  0  0  0
   10.2330   13.2870   23.7050 C   0  0  0  0  0  0  0  0  0  0  0  0
   10.6260   14.1370   24.4890 O   0  0  0  0  0  0  0  0  0  0  0  0
    9.8160   12.0260   24.1590 N   0  0  0  0  0  0  0  0  0  0  0  0
    9.7320   10.9150   23.2160 C   0  0  0  0  0  0  0  0  0  0  0  0
    9.7200    9.6600   23.7800 C   0  0  0  0  0  0  0  0  0  0  0  0
    9.6700    8.6200   22.8670 C   0  0  0  0  0  0  0  0  0  0  0  0
   10.7280    9.6780   24.6160 C   0  0  0  0  0  0  0  0  0  0  0  0
    8.5580    9.5290   24.6140 O   0  0  0  0  0  0  0  0  0  0  0  0
    8.1070   10.5690   25.1270 C   0  0  0  0  0  0  0  0  0  0  0  0
    6.9610   10.4510   25.9360 C   0  0  0  0  0  0  0  0  0  0  0  0
    6.3420   11.6400   26.5960 C   0  0  0  0  0  0  0  0  0  0  0  0
    4.8070   11.4520   27.6770 Br  0  0  0  0  0  0  0  0  0  0  0  0
    6.9450   12.8760   26.3810 C   0  0  0  0  0  0  0  0  0  0  0  0
    8.0740   12.9730   25.5830 C   0  0  0  0  0  0  0  0  0  0  0  0
    8.6470   11.8480   24.9700 C   0  0  0  0  0  0  0  0  0  0  0  0
   10.8500   16.0660   23.3170 H   0  0  0  0  0  0  0  0  0  0  0  0
    9.7100   16.0040   21.9270 H   0  0  0  0  0  0  0  0  0  0  0  0
   11.3360   16.6810   21.7300 H   0  0  0  0  0  0  0  0  0  0  0  0
   11.6470   15.4140   19.8320 H   0  0  0  0  0  0  0  0  0  0  0  0
   12.3450   13.8430   20.1430 H   0  0  0  0  0  0  0  0  0  0  0  0
   10.6200   14.0030   19.8720 H   0  0  0  0  0  0  0  0  0  0  0  0
   12.3670   14.3280   23.6970 H   0  0  0  0  0  0  0  0  0  0  0  0
   13.2870   14.8940   22.3100 H   0  0  0  0  0  0  0  0  0  0  0  0
   12.8340   13.1860   22.4410 H   0  0  0  0  0  0  0  0  0  0  0  0
    8.7580   11.0110   22.7910 H   0  0  0  0  0  0  0  0  0  0  0  0
   10.5200   11.0200   22.4690 H   0  0  0  0  0  0  0  0  0  0  0  0
   10.3970    7.8570   23.1390 H   0  0  0  0  0  0  0  0  0  0  0  0
    9.8840    8.8480   21.8290 H   0  0  0  0  0  0  0  0  0  0  0  0
    8.6860    8.1380   22.8580 H   0  0  0  0  0  0  0  0  0  0  0  0
   10.3240    9.9340   25.5680 H   0  0  0  0  0  0  0  0  0  0  0  0
   11.4710   10.4330   24.3370 H   0  0  0  0  0  0  0  0  0  0  0  0
   11.2220    8.7100   24.6830 H   0  0  0  0  0  0  0  0  0  0  0  0
    6.5690    9.4410   26.0420 H   0  0  0  0  0  0  0  0  0  0  0  0
    6.4600   13.7220   26.8830 H   0  0  0  0  0  0  0  0  0  0  0  0
    8.5870   13.9250   25.3850 H   0  0  0  0  0  0  0  0  0  0  0  0
  1  2  1  0
  2  3  1  0
  2  4  1  0
  2  5  1  0
  5  6  1  0
  6  7  2  0
  6  8  1  0
  8  9  1  0
  9 10  1  0
 10 11  1  0
 10 12  1  0
 10 13  1  0
 13 14  1  0
 14 15  2  0
 15 16  1  0
 16 17  1  0
 16 18  2  0
 18 19  1  0
 19 20  2  0
 20  8  1  0
 20 14  1  0
  1 21  1  0
  1 22  1  0
  1 23  1  0
  3 24  1  0
  3 25  1  0
  3 26  1  0
  4 27  1  0
  4 28  1  0
  4 29  1  0
  9 30  1  0
  9 31  1  0
 11 32  1  0
 11 33  1  0
 11 34  1  0
 12 35  1  0
 12 36  1  0
 12 37  1  0
 15 38  1  0
 18 39  1  0
 19 40  1  0
A    1
 C1 
A    2
 C2 
A    3
 C3 
A    4
 C4 
A    5
 O1 
A    6
 C5 
A    7
 O2 
A    8
 N1 
A    9
 C6 
A   10
 C7 
A   11
 C8 
A   12
 C9 
A   13
 O3 
A   14
 C10
A   15
 C11
A   16
 C12
A   17
BR1 
A   18
 C13
A   19
 C14
A   20
 C15
A   21
 H1 
A   22
 H2 
A   23
 H3 
A   24
 H4 
A   25
 H5 
A   26
 H6 
A   27
 H7 
A   28
 H8 
A   29
 H9 
A   30
 H10
A   31
 H11
A   32
 H12
A   33
 H13
A   34
 H14
A   35
 H15
A   36
 H16
A   37
 H17
A   38
 H18
A   39
 H19
A   40
 H20
M  END
>  <ref_pdb>  (14) 
x0451_0A

>  <ref_mols>  (14) 
x0451_0A,x0554_0A,x0556_0A,x0566_0A,x0310_0A,x0416_0A

>  <original SMILES>  (14) 
CC(C)(C)OC(=O)N1CC(C)(C)Oc2cc(Br)ccc21

>  <rationale>  (14) 
info info set:ROCS-BB-0RB;Warhead nanÅ to Cys110:SG; hydroph_interaction:Y89+V124; 

>  <∆∆G>  (14) 
-9.932464

>  <comRMSD>  (14) 
0.425773

>  <ROCS_TanimotoCombo>  (14) 
0.52

>  <ROCS_ShapeTanimoto>  (14) 
0.37

>  <ROCS_ColorTanimoto>  (14) 
0.15

>  <distance>  (14) 
nan

$$$$
EN300_215969
     RDKit          3D

 36 37  0  0  0  0  0  0  0  0999 V2000
    8.7280    8.0840   23.7270 C   0  0  0  0  0  0  0  0  0  0  0  0
    8.9160    9.4290   23.8640 N   0  0  0  0  0  0  0  0  0  0  0  0
    9.9040   10.0340   23.1810 C   0  0  0  0  0  0  0  0  0  0  0  0
    9.8760   11.3740   23.4840 C   0  0  0  0  0  0  0  0  0  0  0  0
   10.7520   12.2980   22.9490 N   0  0  0  0  0  0  0  0  0  0  0  0
   11.0950   13.5160   23.4040 C   0  0  0  0  0  0  0  0  0  0  0  0
   10.7830   14.0620   24.4500 O   0  0  0  0  0  0  0  0  0  0  0  0
   11.8840   14.0390   22.4390 O   0  0  0  0  0  0  0  0  0  0  0  0
   11.3410   15.0090   21.5680 C   0  0  0  0  0  0  0  0  0  0  0  0
   11.0110   16.1920   22.3630 C   0  0  0  0  0  0  0  0  0  0  0  0
   12.3210   15.3470   20.6590 C   0  0  0  0  0  0  0  0  0  0  0  0
   10.1140   14.5560   20.8100 C   0  0  0  0  0  0  0  0  0  0  0  0
    8.8060   11.5880   24.4080 C   0  0  0  0  0  0  0  0  0  0  0  0
    8.2560   12.8110   25.1120 C   0  0  0  0  0  0  0  0  0  0  0  0
    7.0640   12.6160   26.0550 C   0  0  0  0  0  0  0  0  0  0  0  0
    6.5840   11.3030   26.1810 C   0  0  0  0  0  0  0  0  0  0  0  0
    7.1190   10.2000   25.5120 C   0  0  0  0  0  0  0  0  0  0  0  0
    8.2100   10.3460   24.6410 C   0  0  0  0  0  0  0  0  0  0  0  0
    8.5040    7.6360   24.6950 H   0  0  0  0  0  0  0  0  0  0  0  0
    9.6610    7.6510   23.3540 H   0  0  0  0  0  0  0  0  0  0  0  0
    7.9480    7.8730   22.9970 H   0  0  0  0  0  0  0  0  0  0  0  0
   10.5550    9.4670   22.5260 H   0  0  0  0  0  0  0  0  0  0  0  0
   11.1230   12.0800   22.0260 H   0  0  0  0  0  0  0  0  0  0  0  0
    9.9800   16.4960   22.1450 H   0  0  0  0  0  0  0  0  0  0  0  0
   11.1330   16.1090   23.4430 H   0  0  0  0  0  0  0  0  0  0  0  0
   11.6800   16.9620   21.9920 H   0  0  0  0  0  0  0  0  0  0  0  0
   13.2330   15.8260   21.0040 H   0  0  0  0  0  0  0  0  0  0  0  0
   12.6130   14.4580   20.0890 H   0  0  0  0  0  0  0  0  0  0  0  0
   11.8960   16.0320   19.9240 H   0  0  0  0  0  0  0  0  0  0  0  0
    9.4010   14.0550   21.4700 H   0  0  0  0  0  0  0  0  0  0  0  0
   10.4080   13.8730   20.0090 H   0  0  0  0  0  0  0  0  0  0  0  0
    9.5890   15.3910   20.3340 H   0  0  0  0  0  0  0  0  0  0  0  0
    8.6980   13.8020   24.9510 H   0  0  0  0  0  0  0  0  0  0  0  0
    6.6730   13.5060   26.5590 H   0  0  0  0  0  0  0  0  0  0  0  0
    5.7380   11.1300   26.8430 H   0  0  0  0  0  0  0  0  0  0  0  0
    6.6770    9.2280   25.6770 H   0  0  0  0  0  0  0  0  0  0  0  0
  1  2  1  0
  2  3  1  0
  3  4  2  0
  4  5  1  0
  5  6  1  0
  6  7  2  0
  6  8  1  0
  8  9  1  0
  9 10  1  0
  9 11  1  0
  9 12  1  0
  4 13  1  0
 13 14  2  0
 14 15  1  0
 15 16  2  0
 16 17  1  0
 17 18  2  0
 18  2  1  0
 18 13  1  0
  1 19  1  0
  1 20  1  0
  1 21  1  0
  3 22  1  0
  5 23  1  0
 10 24  1  0
 10 25  1  0
 10 26  1  0
 11 27  1  0
 11 28  1  0
 11 29  1  0
 12 30  1  0
 12 31  1  0
 12 32  1  0
 14 33  1  0
 15 34  1  0
 16 35  1  0
 17 36  1  0
A    1
 C1 
A    2
 N1 
A    3
 C2 
A    4
 C3 
A    5
 N2 
A    6
 C4 
A    7
 O1 
A    8
 O2 
A    9
 C5 
A   10
 C6 
A   11
 C7 
A   12
 C8 
A   13
 C9 
A   14
 C10
A   15
 C11
A   16
 C12
A   17
 C13
A   18
 C14
A   19
 H1 
A   20
 H2 
A   21
 H3 
A   22
 H4 
A   23
 H5 
A   24
 H6 
A   25
 H7 
A   26
 H8 
A   27
 H9 
A   28
 H10
A   29
 H11
A   30
 H12
A   31
 H13
A   32
 H14
A   33
 H15
A   34
 H16
A   35
 H17
A   36
 H18
M  END
>  <ref_pdb>  (15) 
x0451_0A

>  <ref_mols>  (15) 
x0451_0A,x0554_0A,x0556_0A,x0566_0A,x0310_0A,x0416_0A

>  <original SMILES>  (15) 
Cn1cc(NC(=O)OC(C)(C)C)c2ccccc21

>  <rationale>  (15) 
info info set:ROCS-BB-1RB;Warhead nanÅ to Cys110:SG; hbond:S125; hydroph_interaction:Y89+Y90; 

>  <∆∆G>  (15) 
-9.914893

>  <comRMSD>  (15) 
0.476898

>  <ROCS_TanimotoCombo>  (15) 
0.51

>  <ROCS_ShapeTanimoto>  (15) 
0.347

>  <ROCS_ColorTanimoto>  (15) 
0.163

>  <distance>  (15) 
nan

$$$$
EN300_12460617
     RDKit          3D

 33 34  0  0  0  0  0  0  0  0999 V2000
    9.2530    8.3850   23.3760 C   0  0  0  0  0  0  0  0  0  0  0  0
    9.2490    9.8440   23.7020 C   0  0  0  0  0  0  0  0  0  0  0  0
   10.1490   10.8260   23.1900 N   0  0  0  0  0  0  0  0  0  0  0  0
    9.8040   12.0180   23.7300 N   0  0  0  0  0  0  0  0  0  0  0  0
   10.5100   13.2170   23.4190 C   0  0  0  0  0  0  0  0  0  0  0  0
   10.7720   14.0340   24.2940 O   0  0  0  0  0  0  0  0  0  0  0  0
   10.8130   13.2880   22.0870 O   0  0  0  0  0  0  0  0  0  0  0  0
   11.0640   14.5510   21.4040 C   0  0  0  0  0  0  0  0  0  0  0  0
   12.0040   15.2910   22.0850 C   0  0  0  0  0  0  0  0  0  0  0  0
    9.7010   15.2590   21.4140 C   0  0  0  0  0  0  0  0  0  0  0  0
   11.5090   14.3970   19.9410 C   0  0  0  0  0  0  0  0  0  0  0  0
    8.6820   11.8690   24.6120 C   0  0  0  0  0  0  0  0  0  0  0  0
    7.9350   12.8920   25.4480 C   0  0  0  0  0  0  0  0  0  0  0  0
    6.7590   12.4070   26.3010 C   0  0  0  0  0  0  0  0  0  0  0  0
    5.7980   13.6390   27.3610 Br  0  0  0  0  0  0  0  0  0  0  0  0
    6.4010   11.0570   26.2940 C   0  0  0  0  0  0  0  0  0  0  0  0
    7.0940   10.1310   25.5250 C   0  0  0  0  0  0  0  0  0  0  0  0
    8.2920   10.5080   24.6290 C   0  0  0  0  0  0  0  0  0  0  0  0
   10.2630    8.0480   23.1180 H   0  0  0  0  0  0  0  0  0  0  0  0
    8.9200    7.8020   24.2400 H   0  0  0  0  0  0  0  0  0  0  0  0
    8.5860    8.1710   22.5450 H   0  0  0  0  0  0  0  0  0  0  0  0
   12.8560   15.6570   21.5000 H   0  0  0  0  0  0  0  0  0  0  0  0
   12.4200   14.6600   22.8750 H   0  0  0  0  0  0  0  0  0  0  0  0
   11.6230   16.1840   22.5710 H   0  0  0  0  0  0  0  0  0  0  0  0
    9.3030   15.3820   20.3990 H   0  0  0  0  0  0  0  0  0  0  0  0
    9.7880   16.2530   21.8690 H   0  0  0  0  0  0  0  0  0  0  0  0
    8.9720   14.6860   22.0000 H   0  0  0  0  0  0  0  0  0  0  0  0
   11.7820   15.3670   19.5040 H   0  0  0  0  0  0  0  0  0  0  0  0
   12.3710   13.7330   19.8610 H   0  0  0  0  0  0  0  0  0  0  0  0
   10.7230   13.9640   19.3100 H   0  0  0  0  0  0  0  0  0  0  0  0
    8.2350   13.9430   25.4370 H   0  0  0  0  0  0  0  0  0  0  0  0
    5.5580   10.7210   26.9080 H   0  0  0  0  0  0  0  0  0  0  0  0
    6.7750    9.1070   25.5620 H   0  0  0  0  0  0  0  0  0  0  0  0
  1  2  1  0
  2  3  2  0
  3  4  1  0
  4  5  1  0
  5  6  2  0
  5  7  1  0
  7  8  1  0
  8  9  1  0
  8 10  1  0
  8 11  1  0
  4 12  1  0
 12 13  2  0
 13 14  1  0
 14 15  1  0
 14 16  2  0
 16 17  1  0
 17 18  2  0
 18  2  1  0
 18 12  1  0
  1 19  1  0
  1 20  1  0
  1 21  1  0
  9 22  1  0
  9 23  1  0
  9 24  1  0
 10 25  1  0
 10 26  1  0
 10 27  1  0
 11 28  1  0
 11 29  1  0
 11 30  1  0
 13 31  1  0
 16 32  1  0
 17 33  1  0
A    1
 C1 
A    2
 C2 
A    3
 N1 
A    4
 N2 
A    5
 C3 
A    6
 O1 
A    7
 O2 
A    8
 C4 
A    9
 C5 
A   10
 C6 
A   11
 C7 
A   12
 C8 
A   13
 C9 
A   14
 C10
A   15
BR1 
A   16
 C11
A   17
 C12
A   18
 C13
A   19
 H1 
A   20
 H2 
A   21
 H3 
A   22
 H4 
A   23
 H5 
A   24
 H6 
A   25
 H7 
A   26
 H8 
A   27
 H9 
A   28
 H10
A   29
 H11
A   30
 H12
A   31
 H13
A   32
 H14
A   33
 H15
M  END
>  <ref_pdb>  (16) 
x0451_0A

>  <ref_mols>  (16) 
x0451_0A,x0554_0A,x0556_0A,x0566_0A,x0310_0A,x0416_0A

>  <original SMILES>  (16) 
Cc1nn(C(=O)OC(C)(C)C)c2cc(Br)ccc12

>  <rationale>  (16) 
info info set:ROCS-BB-0RB;Warhead nanÅ to Cys110:SG; hydroph_interaction:Y89+V124+D109; 

>  <∆∆G>  (16) 
-9.882993

>  <comRMSD>  (16) 
0.333884

>  <ROCS_TanimotoCombo>  (16) 
0.477

>  <ROCS_ShapeTanimoto>  (16) 
0.346

>  <ROCS_ColorTanimoto>  (16) 
0.131

>  <distance>  (16) 
nan

$$$$
EN300_24295138
     RDKit          3D

 35 36  0  0  0  0  0  0  0  0999 V2000
    8.7110    8.0690   23.6970 C   0  0  0  0  0  0  0  0  0  0  0  0
    8.8740    9.4960   23.8870 N   0  0  0  0  0  0  0  0  0  0  0  0
    9.8570   10.0580   23.1960 N   0  0  0  0  0  0  0  0  0  0  0  0
    9.8170   11.3420   23.5130 C   0  0  0  0  0  0  0  0  0  0  0  0
   10.6860   12.2600   22.9880 N   0  0  0  0  0  0  0  0  0  0  0  0
   11.0120   13.4740   23.4840 C   0  0  0  0  0  0  0  0  0  0  0  0
   10.6730   14.0120   24.5360 O   0  0  0  0  0  0  0  0  0  0  0  0
   11.8290   14.0390   22.5660 O   0  0  0  0  0  0  0  0  0  0  0  0
   11.3100   15.0030   21.6340 C   0  0  0  0  0  0  0  0  0  0  0  0
   11.0600   16.0660   22.4000 C   0  0  0  0  0  0  0  0  0  0  0  0
   12.3180   15.3930   20.5660 C   0  0  0  0  0  0  0  0  0  0  0  0
    9.9910   14.6050   21.0110 C   0  0  0  0  0  0  0  0  0  0  0  0
    8.7700   11.6100   24.4410 C   0  0  0  0  0  0  0  0  0  0  0  0
    8.2060   12.8260   25.1720 C   0  0  0  0  0  0  0  0  0  0  0  0
    7.1050   12.7650   26.0820 C   0  0  0  0  0  0  0  0  0  0  0  0
    6.5280   11.4680   26.2910 C   0  0  0  0  0  0  0  0  0  0  0  0
    5.0730   11.3220   27.4910 Br  0  0  0  0  0  0  0  0  0  0  0  0
    6.9890   10.3110   25.6530 C   0  0  0  0  0  0  0  0  0  0  0  0
    8.1700   10.3840   24.6760 C   0  0  0  0  0  0  0  0  0  0  0  0
    7.8950    7.8600   23.0070 H   0  0  0  0  0  0  0  0  0  0  0  0
    8.5000    7.5970   24.6550 H   0  0  0  0  0  0  0  0  0  0  0  0
    9.6280    7.6320   23.3000 H   0  0  0  0  0  0  0  0  0  0  0  0
   11.0610   12.0610   22.0650 H   0  0  0  0  0  0  0  0  0  0  0  0
   11.7180   16.8730   22.1070 H   0  0  0  0  0  0  0  0  0  0  0  0
   10.0450   16.4490   22.4120 H   0  0  0  0  0  0  0  0  0  0  0  0
   11.2700   15.8080   23.4440 H   0  0  0  0  0  0  0  0  0  0  0  0
   13.1930   15.8970   20.9920 H   0  0  0  0  0  0  0  0  0  0  0  0
   11.8640   16.0720   19.8430 H   0  0  0  0  0  0  0  0  0  0  0  0
   12.6600   14.5290   19.9960 H   0  0  0  0  0  0  0  0  0  0  0  0
    9.3800   14.0350   21.7130 H   0  0  0  0  0  0  0  0  0  0  0  0
    9.4240   15.4720   20.6560 H   0  0  0  0  0  0  0  0  0  0  0  0
   10.1910   13.9880   20.1350 H   0  0  0  0  0  0  0  0  0  0  0  0
    8.6740   13.7980   24.9880 H   0  0  0  0  0  0  0  0  0  0  0  0
    6.7370   13.6570   26.5830 H   0  0  0  0  0  0  0  0  0  0  0  0
    6.5060    9.3630   25.8550 H   0  0  0  0  0  0  0  0  0  0  0  0
  1  2  1  0
  2  3  1  0
  3  4  2  0
  4  5  1  0
  5  6  1  0
  6  7  2  0
  6  8  1  0
  8  9  1  0
  9 10  1  0
  9 11  1  0
  9 12  1  0
  4 13  1  0
 13 14  2  0
 14 15  1  0
 15 16  2  0
 16 17  1  0
 16 18  1  0
 18 19  2  0
 19  2  1  0
 19 13  1  0
  1 20  1  0
  1 21  1  0
  1 22  1  0
  5 23  1  0
 10 24  1  0
 10 25  1  0
 10 26  1  0
 11 27  1  0
 11 28  1  0
 11 29  1  0
 12 30  1  0
 12 31  1  0
 12 32  1  0
 14 33  1  0
 15 34  1  0
 18 35  1  0
A    1
 C1 
A    2
 N1 
A    3
 N2 
A    4
 C2 
A    5
 N3 
A    6
 C3 
A    7
 O1 
A    8
 O2 
A    9
 C4 
A   10
 C5 
A   11
 C6 
A   12
 C7 
A   13
 C8 
A   14
 C9 
A   15
 C10
A   16
 C11
A   17
BR1 
A   18
 C12
A   19
 C13
A   20
 H1 
A   21
 H2 
A   22
 H3 
A   23
 H4 
A   24
 H5 
A   25
 H6 
A   26
 H7 
A   27
 H8 
A   28
 H9 
A   29
 H10
A   30
 H11
A   31
 H12
A   32
 H13
A   33
 H14
A   34
 H15
A   35
 H16
M  END
>  <ref_pdb>  (17) 
x0451_0A

>  <ref_mols>  (17) 
x0451_0A,x0554_0A,x0556_0A,x0566_0A,x0310_0A,x0416_0A

>  <original SMILES>  (17) 
Cn1nc(NC(=O)OC(C)(C)C)c2ccc(Br)cc21

>  <rationale>  (17) 
info info set:ROCS-BB-1RB;Warhead nanÅ to Cys110:SG; hbond:S125; hydroph_interaction:Y89+Y90; 

>  <∆∆G>  (17) 
-9.767682

>  <comRMSD>  (17) 
0.422647

>  <ROCS_TanimotoCombo>  (17) 
0.515

>  <ROCS_ShapeTanimoto>  (17) 
0.36

>  <ROCS_ColorTanimoto>  (17) 
0.155

>  <distance>  (17) 
nan

$$$$
Z1262396062
     RDKit          3D

 25 25  0  0  0  0  0  0  0  0999 V2000
    6.7100   10.3880   25.8020 C   0  0  0  0  0  0  0  0  0  0  0  0
    7.9030   10.5640   24.8980 C   0  0  0  0  0  0  0  0  0  0  0  0
    8.5570   12.1330   24.6610 S   0  0  0  0  0  0  0  0  0  0  0  0
    9.7700   11.5580   23.6210 C   0  0  0  0  0  0  0  0  0  0  0  0
   10.8130   12.3810   22.9590 N   0  0  0  0  0  0  0  0  0  0  0  0
   10.9650   13.7990   23.2680 C   0  0  0  0  0  0  0  0  0  0  0  0
   10.4610   14.4140   24.2050 O   0  0  0  0  0  0  0  0  0  0  0  0
   11.7880   14.4830   22.3770 C   0  0  0  0  0  0  0  0  0  0  0  0
   11.1270   14.4890   20.7230 Cl  0  0  0  0  0  0  0  0  0  0  0  0
    9.6820   10.2100   23.4520 C   0  0  0  0  0  0  0  0  0  0  0  0
   10.4850    9.4070   22.6850 C   0  0  0  0  0  0  0  0  0  0  0  0
    8.6380    9.6330   24.1620 C   0  0  0  0  0  0  0  0  0  0  0  0
    8.5470    8.1300   23.9710 C   0  0  0  0  0  0  0  0  0  0  0  0
    6.9510    9.9050   26.7450 H   0  0  0  0  0  0  0  0  0  0  0  0
    5.9570    9.7340   25.3570 H   0  0  0  0  0  0  0  0  0  0  0  0
    6.2490   11.3580   26.0100 H   0  0  0  0  0  0  0  0  0  0  0  0
   10.9840   12.0910   21.9820 H   0  0  0  0  0  0  0  0  0  0  0  0
   12.0030   15.5240   22.5900 H   0  0  0  0  0  0  0  0  0  0  0  0
   12.7390   13.9540   22.3120 H   0  0  0  0  0  0  0  0  0  0  0  0
    9.8390    8.7440   22.1040 H   0  0  0  0  0  0  0  0  0  0  0  0
   11.1620    9.8530   21.9940 H   0  0  0  0  0  0  0  0  0  0  0  0
   11.0820    8.7590   23.3230 H   0  0  0  0  0  0  0  0  0  0  0  0
    9.5380    7.8130   23.6400 H   0  0  0  0  0  0  0  0  0  0  0  0
    8.3140    7.6190   24.8890 H   0  0  0  0  0  0  0  0  0  0  0  0
    7.8630    7.8310   23.1740 H   0  0  0  0  0  0  0  0  0  0  0  0
  1  2  1  0
  2  3  1  0
  3  4  1  0
  4  5  1  0
  5  6  1  0
  6  7  2  0
  6  8  1  0
  8  9  1  0
  4 10  2  0
 10 11  1  0
 10 12  1  0
 12 13  1  0
 12  2  2  0
  1 14  1  0
  1 15  1  0
  1 16  1  0
  5 17  1  0
  8 18  1  0
  8 19  1  0
 11 20  1  0
 11 21  1  0
 11 22  1  0
 13 23  1  0
 13 24  1  0
 13 25  1  0
A    1
 C1 
A    2
 C2 
A    3
 S1 
A    4
 C3 
A    5
 N1 
A    6
 C4 
A    7
 O1 
A    8
 C5 
A    9
CL1 
A   10
 C6 
A   11
 C7 
A   12
 C8 
A   13
 C9 
A   14
 H1 
A   15
 H2 
A   16
 H3 
A   17
 H4 
A   18
 H5 
A   19
 H6 
A   20
 H7 
A   21
 H8 
A   22
 H9 
A   23
 H10
A   24
 H11
A   25
 H12
M  END
>  <ref_pdb>  (18) 
x0451_0A

>  <ref_mols>  (18) 
x0451_0A,x0554_0A,x0556_0A,x0566_0A,x0310_0A,x0416_0A

>  <original SMILES>  (18) 
Cc1sc(NC(=O)CCl)c(C)c1C

>  <rationale>  (18) 
info info set:ROCS-electro;Warhead 4.384825184656737Å to Cys110:SG; hbond:S125; hydroph_interaction:A110+V124+D109; 

>  <∆∆G>  (18) 
-9.759809

>  <comRMSD>  (18) 
0.607215

>  <ROCS_TanimotoCombo>  (18) 
0.414

>  <ROCS_ShapeTanimoto>  (18) 
0.27

>  <ROCS_ColorTanimoto>  (18) 
0.144

>  <distance>  (18) 
4.384825

$$$$
Z119989848
     RDKit          3D

 30 30  0  0  0  0  0  0  0  0999 V2000
    8.7340    7.8530   23.6140 C   0  0  0  0  0  0  0  0  0  0  0  0
    8.6870    9.3040   23.9600 C   0  0  0  0  0  0  0  0  0  0  0  0
    7.7190    9.8640   24.7980 C   0  0  0  0  0  0  0  0  0  0  0  0
    7.7320   11.2260   25.0560 C   0  0  0  0  0  0  0  0  0  0  0  0
    6.5010   11.9440   26.1080 S   0  0  0  0  0  6  0  0  0  0  0  0
    6.3760   13.5150   25.4680 N   0  0  0  0  0  0  0  0  0  0  0  0
    5.2350   11.2840   25.9310 O   0  0  0  0  0  0  0  0  0  0  0  0
    7.0220   12.0630   27.4410 O   0  0  0  0  0  0  0  0  0  0  0  0
    8.7190   12.0450   24.4800 C   0  0  0  0  0  0  0  0  0  0  0  0
    9.6980   11.5120   23.6510 C   0  0  0  0  0  0  0  0  0  0  0  0
   10.7150   12.2930   23.0430 N   0  0  0  0  0  0  0  0  0  0  0  0
   11.0200   13.6230   23.2650 C   0  0  0  0  0  0  0  0  0  0  0  0
   10.6030   14.3150   24.1930 O   0  0  0  0  0  0  0  0  0  0  0  0
   11.9660   14.2200   22.2220 C   0  0  0  0  0  0  0  0  0  0  0  0
   11.2140   15.5220   21.2670 Cl  0  0  0  0  0  0  0  0  0  0  0  0
    9.6640   10.1210   23.4030 C   0  0  0  0  0  0  0  0  0  0  0  0
   10.5870    9.5290   22.6030 C   0  0  0  0  0  0  0  0  0  0  0  0
    9.7180    7.5880   23.2220 H   0  0  0  0  0  0  0  0  0  0  0  0
    7.9920    7.6210   22.8450 H   0  0  0  0  0  0  0  0  0  0  0  0
    8.5530    7.2300   24.4920 H   0  0  0  0  0  0  0  0  0  0  0  0
    6.9460    9.2590   25.2570 H   0  0  0  0  0  0  0  0  0  0  0  0
    7.3180   13.8840   25.3190 H   0  0  0  0  0  0  0  0  0  0  0  0
    5.8250   13.5390   24.6050 H   0  0  0  0  0  0  0  0  0  0  0  0
    8.6240   13.1000   24.7560 H   0  0  0  0  0  0  0  0  0  0  0  0
   10.9940   11.9880   22.1030 H   0  0  0  0  0  0  0  0  0  0  0  0
   12.2800   13.4330   21.5350 H   0  0  0  0  0  0  0  0  0  0  0  0
   12.8440   14.6370   22.7220 H   0  0  0  0  0  0  0  0  0  0  0  0
   11.2540   10.3210   22.3140 H   0  0  0  0  0  0  0  0  0  0  0  0
   10.1240    9.1360   21.6970 H   0  0  0  0  0  0  0  0  0  0  0  0
   11.1790    8.7090   22.9680 H   0  0  0  0  0  0  0  0  0  0  0  0
  1  2  1  0
  2  3  2  0
  3  4  1  0
  4  5  1  0
  5  6  1  0
  5  7  2  0
  5  8  2  0
  4  9  2  0
  9 10  1  0
 10 11  1  0
 11 12  1  0
 12 13  2  0
 12 14  1  0
 14 15  1  0
 10 16  2  0
 16 17  1  0
 16  2  1  0
  1 18  1  0
  1 19  1  0
  1 20  1  0
  3 21  1  0
  6 22  1  0
  6 23  1  0
  9 24  1  0
 11 25  1  0
 14 26  1  0
 14 27  1  0
 17 28  1  0
 17 29  1  0
 17 30  1  0
A    1
 C1 
A    2
 C2 
A    3
 C3 
A    4
 C4 
A    5
 S1 
A    6
 N1 
A    7
 O1 
A    8
 O2 
A    9
 C5 
A   10
 C6 
A   11
 N2 
A   12
 C7 
A   13
 O3 
A   14
 C8 
A   15
CL1 
A   16
 C9 
A   17
 C10
A   18
 H1 
A   19
 H2 
A   20
 H3 
A   21
 H4 
A   22
 H5 
A   23
 H6 
A   24
 H7 
A   25
 H8 
A   26
 H9 
A   27
 H10
A   28
 H11
A   29
 H12
A   30
 H13
M  END
>  <ref_pdb>  (19) 
x0451_0A

>  <ref_mols>  (19) 
x0451_0A,x0554_0A,x0556_0A,x0566_0A,x0310_0A,x0416_0A

>  <original SMILES>  (19) 
Cc1cc(S(N)(=O)=O)cc(NC(=O)CCl)c1C

>  <rationale>  (19) 
info info set:ROCS-electro;Warhead 4.491538625014817Å to Cys110:SG; hbond:S125+G127; hydroph_interaction:A110+D109; 

>  <∆∆G>  (19) 
-9.731287

>  <comRMSD>  (19) 
0.475204

>  <ROCS_TanimotoCombo>  (19) 
0.472

>  <ROCS_ShapeTanimoto>  (19) 
0.32

>  <ROCS_ColorTanimoto>  (19) 
0.152

>  <distance>  (19) 
4.491539

$$$$
EN300_28262895
     RDKit          3D

 33 34  0  0  0  0  0  0  0  0999 V2000
    9.4230    8.4720   23.3510 C   0  0  0  0  0  0  0  0  0  0  0  0
    9.2630    9.8980   23.7700 C   0  0  0  0  0  0  0  0  0  0  0  0
   10.2060   10.8310   23.1970 N   0  0  0  0  0  0  0  0  0  0  0  0
    9.8270   12.0370   23.7460 N   0  0  0  0  0  0  0  0  0  0  0  0
   10.5010   13.2070   23.4380 C   0  0  0  0  0  0  0  0  0  0  0  0
   10.7330   14.0510   24.2980 O   0  0  0  0  0  0  0  0  0  0  0  0
   10.8410   13.2640   22.1110 O   0  0  0  0  0  0  0  0  0  0  0  0
   11.0110   14.5280   21.4040 C   0  0  0  0  0  0  0  0  0  0  0  0
   12.0040   15.1970   22.1080 C   0  0  0  0  0  0  0  0  0  0  0  0
   11.5160   14.3940   19.9580 C   0  0  0  0  0  0  0  0  0  0  0  0
    9.7270   15.3560   21.4810 C   0  0  0  0  0  0  0  0  0  0  0  0
    8.7240   11.8980   24.6090 C   0  0  0  0  0  0  0  0  0  0  0  0
    7.9340   12.9120   25.4500 C   0  0  0  0  0  0  0  0  0  0  0  0
    6.7670   12.4750   26.3080 C   0  0  0  0  0  0  0  0  0  0  0  0
    5.6720   13.8130   27.4630 I   0  0  0  0  0  0  0  0  0  0  0  0
    6.4440   11.0020   26.2830 C   0  0  0  0  0  0  0  0  0  0  0  0
    7.2630   10.0640   25.4340 C   0  0  0  0  0  0  0  0  0  0  0  0
    8.3510   10.5120   24.6350 C   0  0  0  0  0  0  0  0  0  0  0  0
    8.9400    8.2650   22.3980 H   0  0  0  0  0  0  0  0  0  0  0  0
   10.4830    8.2110   23.2500 H   0  0  0  0  0  0  0  0  0  0  0  0
    8.9750    7.8120   24.1020 H   0  0  0  0  0  0  0  0  0  0  0  0
   12.5010   14.6440   22.9020 H   0  0  0  0  0  0  0  0  0  0  0  0
   11.7240   16.1380   22.5660 H   0  0  0  0  0  0  0  0  0  0  0  0
   12.7860   15.4400   21.3740 H   0  0  0  0  0  0  0  0  0  0  0  0
   10.7650   13.9750   19.2840 H   0  0  0  0  0  0  0  0  0  0  0  0
   12.3890   13.7530   19.8980 H   0  0  0  0  0  0  0  0  0  0  0  0
   11.8400   15.3600   19.5440 H   0  0  0  0  0  0  0  0  0  0  0  0
    8.8450   14.7000   21.4880 H   0  0  0  0  0  0  0  0  0  0  0  0
    9.7040   15.9790   22.3820 H   0  0  0  0  0  0  0  0  0  0  0  0
    9.6160   16.0230   20.6180 H   0  0  0  0  0  0  0  0  0  0  0  0
    8.3020   13.9370   25.3550 H   0  0  0  0  0  0  0  0  0  0  0  0
    5.6000   10.6840   26.9070 H   0  0  0  0  0  0  0  0  0  0  0  0
    7.0100    9.0260   25.4420 H   0  0  0  0  0  0  0  0  0  0  0  0
  1  2  1  0
  2  3  2  0
  3  4  1  0
  4  5  1  0
  5  6  2  0
  5  7  1  0
  7  8  1  0
  8  9  1  0
  8 10  1  0
  8 11  1  0
  4 12  1  0
 12 13  2  0
 13 14  1  0
 14 15  1  0
 14 16  2  0
 16 17  1  0
 17 18  2  0
 18  2  1  0
 18 12  1  0
  1 19  1  0
  1 20  1  0
  1 21  1  0
  9 22  1  0
  9 23  1  0
  9 24  1  0
 10 25  1  0
 10 26  1  0
 10 27  1  0
 11 28  1  0
 11 29  1  0
 11 30  1  0
 13 31  1  0
 16 32  1  0
 17 33  1  0
A    1
 C1 
A    2
 C2 
A    3
 N1 
A    4
 N2 
A    5
 C3 
A    6
 O1 
A    7
 O2 
A    8
 C4 
A    9
 C5 
A   10
 C6 
A   11
 C7 
A   12
 C8 
A   13
 C9 
A   14
 C10
A   15
 I1 
A   16
 C11
A   17
 C12
A   18
 C13
A   19
 H1 
A   20
 H2 
A   21
 H3 
A   22
 H4 
A   23
 H5 
A   24
 H6 
A   25
 H7 
A   26
 H8 
A   27
 H9 
A   28
 H10
A   29
 H11
A   30
 H12
A   31
 H13
A   32
 H14
A   33
 H15
M  END
>  <ref_pdb>  (20) 
x0451_0A

>  <ref_mols>  (20) 
x0451_0A,x0554_0A,x0556_0A,x0566_0A,x0310_0A,x0416_0A

>  <original SMILES>  (20) 
Cc1nn(C(=O)OC(C)(C)C)c2cc(I)ccc12

>  <rationale>  (20) 
info info set:ROCS-BB-0RB;Warhead nanÅ to Cys110:SG; hydroph_interaction:Y89+V124+D109; 

>  <∆∆G>  (20) 
-9.702482

>  <comRMSD>  (20) 
0.351121

>  <ROCS_TanimotoCombo>  (20) 
0.476

>  <ROCS_ShapeTanimoto>  (20) 
0.345

>  <ROCS_ColorTanimoto>  (20) 
0.131

>  <distance>  (20) 
nan

$$$$
Z1450458283
     RDKit          3D

 40 41  0  0  0  0  0  0  0  0999 V2000
    8.5800    8.0100   23.7370 C   0  0  0  0  0  0  0  0  0  0  0  0
    8.5780    9.4870   24.0950 C   0  0  0  0  0  0  0  0  0  0  0  0
    7.4840   10.0840   24.9910 C   0  0  0  0  0  0  0  0  0  0  0  0
    7.7110   11.5810   25.1930 C   0  0  0  0  0  0  0  0  0  0  0  0
    8.7870   12.2600   24.6210 C   0  0  0  0  0  0  0  0  0  0  0  0
    9.7320   11.6170   23.8230 C   0  0  0  0  0  0  0  0  0  0  0  0
   10.8040   12.2750   23.2610 C   0  0  2  0  0  0  0  0  0  0  0  0
   12.0470   11.8000   23.5870 C   0  0  0  0  0  0  0  0  0  0  0  0
   12.6500   12.3090   24.6930 C   0  0  0  0  0  0  0  0  0  0  0  0
   12.5060   13.8010   24.8620 C   0  0  0  0  0  0  0  0  0  0  0  0
   11.2880   14.3380   24.4660 C   0  0  0  0  0  0  0  0  0  0  0  0
   10.8030   13.7380   23.2360 N   0  0  0  0  0  0  0  0  0  0  0  0
   10.2180   14.5070   22.2070 C   0  0  0  0  0  0  0  0  0  0  0  0
    9.0640   14.3500   21.7990 O   0  0  0  0  0  0  0  0  0  0  0  0
   11.0730   15.6220   21.5830 C   0  0  0  0  0  0  0  0  0  0  0  0
   10.1950   16.6290   20.9510 N   0  0  0  0  0  0  0  0  0  0  0  0
    9.5980   10.2370   23.5780 C   0  0  0  0  0  0  0  0  0  0  0  0
   10.5560    9.4820   22.7340 C   0  0  0  0  0  0  0  0  0  0  0  0
    9.5460    7.7400   23.3060 H   0  0  0  0  0  0  0  0  0  0  0  0
    7.8320    7.7550   22.9820 H   0  0  0  0  0  0  0  0  0  0  0  0
    8.3990    7.3930   24.6180 H   0  0  0  0  0  0  0  0  0  0  0  0
    6.6530    9.5410   25.4310 H   0  0  0  0  0  0  0  0  0  0  0  0
    7.0120   12.1410   25.8050 H   0  0  0  0  0  0  0  0  0  0  0  0
    8.8690   13.3240   24.8210 H   0  0  0  0  0  0  0  0  0  0  0  0
   10.7120   11.9990   22.2500 H   0  0  0  0  0  0  0  0  0  0  0  0
   12.0120   10.7220   23.7540 H   0  0  0  0  0  0  0  0  0  0  0  0
   12.7040   11.9650   22.7240 H   0  0  0  0  0  0  0  0  0  0  0  0
   12.2230   11.8210   25.5760 H   0  0  0  0  0  0  0  0  0  0  0  0
   13.7120   12.0390   24.6750 H   0  0  0  0  0  0  0  0  0  0  0  0
   13.2980   14.2480   24.2600 H   0  0  0  0  0  0  0  0  0  0  0  0
   12.6810   14.0620   25.9050 H   0  0  0  0  0  0  0  0  0  0  0  0
   10.5390   14.1550   25.2430 H   0  0  0  0  0  0  0  0  0  0  0  0
   11.3970   15.4170   24.3610 H   0  0  0  0  0  0  0  0  0  0  0  0
   11.7940   15.2230   20.8590 H   0  0  0  0  0  0  0  0  0  0  0  0
   11.6510   16.0870   22.3880 H   0  0  0  0  0  0  0  0  0  0  0  0
    9.2240   16.3510   21.0940 H   0  0  0  0  0  0  0  0  0  0  0  0
   10.3530   16.5710   19.9400 H   0  0  0  0  0  0  0  0  0  0  0  0
   11.1320    8.7920   23.3480 H   0  0  0  0  0  0  0  0  0  0  0  0
   10.0590    8.9130   21.9510 H   0  0  0  0  0  0  0  0  0  0  0  0
   11.2060   10.1600   22.2190 H   0  0  0  0  0  0  0  0  0  0  0  0
  1  2  1  0
  2  3  2  0
  3  4  1  0
  4  5  2  0
  5  6  1  0
  6  7  1  0
  7  8  1  0
  8  9  1  0
  9 10  1  0
 10 11  1  0
 11 12  1  0
 12 13  1  0
 13 14  2  0
 13 15  1  0
 15 16  1  0
  6 17  2  0
 17 18  1  0
 17  2  1  0
 12  7  1  0
  1 19  1  0
  1 20  1  0
  1 21  1  0
  3 22  1  0
  4 23  1  0
  5 24  1  0
  7 25  1  6
  8 26  1  0
  8 27  1  0
  9 28  1  0
  9 29  1  0
 10 30  1  0
 10 31  1  0
 11 32  1  0
 11 33  1  0
 15 34  1  0
 15 35  1  0
 16 36  1  0
 16 37  1  0
 18 38  1  0
 18 39  1  0
 18 40  1  0
A    1
 C1 
A    2
 C2 
A    3
 C3 
A    4
 C4 
A    5
 C5 
A    6
 C6 
A    7
 C7 
A    8
 C8 
A    9
 C9 
A   10
 C10
A   11
 C11
A   12
 N1 
A   13
 C12
A   14
 O1 
A   15
 C13
A   16
 N2 
A   17
 C14
A   18
 C15
A   19
 H1 
A   20
 H2 
A   21
 H3 
A   22
 H4 
A   23
 H5 
A   24
 H6 
A   25
 H7 
A   26
 H8 
A   27
 H9 
A   28
 H10
A   29
 H11
A   30
 H12
A   31
 H13
A   32
 H14
A   33
 H15
A   34
 H16
A   35
 H17
A   36
 H18
A   37
 H19
A   38
 H20
A   39
 H21
A   40
 H22
M  END
>  <ref_pdb>  (21) 
x0451_0A

>  <ref_mols>  (21) 
x0451_0A,x0554_0A,x0556_0A,x0566_0A,x0310_0A,x0416_0A

>  <original SMILES>  (21) 
Cc1cccc([C@@H]2CCCCN2C(=O)CN)c1C

>  <rationale>  (21) 
info info set:ROCS-shape_Q1;Warhead nanÅ to Cys110:SG; hbond:S87; hydroph_interaction:Y89+V124+D109; 

>  <∆∆G>  (21) 
-9.675243

>  <comRMSD>  (21) 
0.50091

>  <ROCS_TanimotoCombo>  (21) 
0.419

>  <ROCS_ShapeTanimoto>  (21) 
0.308

>  <ROCS_ColorTanimoto>  (21) 
0.111

>  <distance>  (21) 
nan

$$$$
EN300_26666415
     RDKit          3D

 34 35  0  0  0  0  0  0  0  0999 V2000
    9.8740   14.9580   21.0100 C   0  0  0  0  0  0  0  0  0  0  0  0
   11.3530   14.8950   21.2340 C   0  0  0  0  0  0  0  0  0  0  0  0
   12.1660   14.8800   20.0720 C   0  0  0  0  0  0  0  0  0  0  0  0
   11.8010   16.0730   22.0320 C   0  0  0  0  0  0  0  0  0  0  0  0
   11.7300   13.7370   22.0020 O   0  0  0  0  0  0  0  0  0  0  0  0
   11.1040   13.4540   23.1690 C   0  0  0  0  0  0  0  0  0  0  0  0
   10.9920   14.2150   24.1170 O   0  0  0  0  0  0  0  0  0  0  0  0
   10.6370   12.1900   23.0440 N   0  0  0  0  0  0  0  0  0  0  0  0
    9.5690   11.6730   23.7680 C   0  0  0  0  0  0  0  0  0  0  0  0
    8.7470   12.5250   24.4920 N   0  0  0  0  0  0  0  0  0  0  0  0
    7.6800   11.8920   25.2130 C   0  0  0  0  0  0  0  0  0  0  0  0
    6.9100   12.7580   25.9030 C   0  0  0  0  0  0  0  0  0  0  0  0
    5.7610   12.0910   26.6860 C   0  0  0  0  0  0  0  0  0  0  0  0
    5.5580   10.6560   26.6610 C   0  0  0  0  0  0  0  0  0  0  0  0
    6.4960    9.9230   25.8590 C   0  0  0  0  0  0  0  0  0  0  0  0
    7.5260   10.4890   25.1500 C   0  0  0  0  0  0  0  0  0  0  0  0
    8.3420    9.6370   24.4210 N   0  0  0  0  0  0  0  0  0  0  0  0
    9.3470   10.2690   23.7510 C   0  0  0  0  0  0  0  0  0  0  0  0
   10.3860    9.1660   22.8280 S   0  0  0  0  0  0  0  0  0  0  0  0
    9.3860   14.1070   21.4910 H   0  0  0  0  0  0  0  0  0  0  0  0
    9.6330   14.9320   19.9450 H   0  0  0  0  0  0  0  0  0  0  0  0
    9.4750   15.8890   21.4170 H   0  0  0  0  0  0  0  0  0  0  0  0
   11.8020   15.4030   19.1930 H   0  0  0  0  0  0  0  0  0  0  0  0
   12.4600   13.9080   19.6840 H   0  0  0  0  0  0  0  0  0  0  0  0
   13.1040   15.3740   20.3480 H   0  0  0  0  0  0  0  0  0  0  0  0
   11.3910   16.0710   23.0490 H   0  0  0  0  0  0  0  0  0  0  0  0
   12.8890   16.0440   22.1060 H   0  0  0  0  0  0  0  0  0  0  0  0
   11.4900   17.0030   21.5610 H   0  0  0  0  0  0  0  0  0  0  0  0
   10.8470   11.8010   22.1190 H   0  0  0  0  0  0  0  0  0  0  0  0
    7.0890   13.8300   25.9030 H   0  0  0  0  0  0  0  0  0  0  0  0
    5.0900   12.7130   27.2700 H   0  0  0  0  0  0  0  0  0  0  0  0
    4.7550   10.1760   27.2090 H   0  0  0  0  0  0  0  0  0  0  0  0
    6.2620    8.8930   25.9080 H   0  0  0  0  0  0  0  0  0  0  0  0
    9.5870    9.1620   21.7460 H   0  0  0  0  0  0  0  0  0  0  0  0
  1  2  1  0
  2  3  1  0
  2  4  1  0
  2  5  1  0
  5  6  1  0
  6  7  2  0
  6  8  1  0
  8  9  1  0
  9 10  2  0
 10 11  1  0
 11 12  2  0
 12 13  1  0
 13 14  2  0
 14 15  1  0
 15 16  2  0
 16 17  1  0
 17 18  2  0
 18 19  1  0
 18  9  1  0
 16 11  1  0
  1 20  1  0
  1 21  1  0
  1 22  1  0
  3 23  1  0
  3 24  1  0
  3 25  1  0
  4 26  1  0
  4 27  1  0
  4 28  1  0
  8 29  1  0
 12 30  1  0
 13 31  1  0
 14 32  1  0
 15 33  1  0
 19 34  1  0
A    1
 C1 
A    2
 C2 
A    3
 C3 
A    4
 C4 
A    5
 O1 
A    6
 C5 
A    7
 O2 
A    8
 N1 
A    9
 C6 
A   10
 N2 
A   11
 C7 
A   12
 C8 
A   13
 C9 
A   14
 C10
A   15
 C11
A   16
 C12
A   17
 N3 
A   18
 C13
A   19
 S1 
A   20
 H1 
A   21
 H2 
A   22
 H3 
A   23
 H4 
A   24
 H5 
A   25
 H6 
A   26
 H7 
A   27
 H8 
A   28
 H9 
A   29
 H10
A   30
 H11
A   31
 H12
A   32
 H13
A   33
 H14
A   34
 H15
M  END
>  <ref_pdb>  (22) 
x0451_0A

>  <ref_mols>  (22) 
x0451_0A,x0554_0A,x0556_0A,x0566_0A,x0310_0A,x0416_0A

>  <original SMILES>  (22) 
CC(C)(C)OC(=O)Nc1nc2ccccc2nc1S

>  <rationale>  (22) 
info info set:ROCS-BB-1RB;Warhead nanÅ to Cys110:SG; hbond:S125; hydroph_interaction:Y89+Y90; 

>  <∆∆G>  (22) 
-9.66855

>  <comRMSD>  (22) 
0.42578

>  <ROCS_TanimotoCombo>  (22) 
0.51

>  <ROCS_ShapeTanimoto>  (22) 
0.35

>  <ROCS_ColorTanimoto>  (22) 
0.159

>  <distance>  (22) 
nan

$$$$
Z1083845368
     RDKit          3D

 55 58  0  0  0  0  0  0  0  0999 V2000
   12.3370   15.5260   20.6860 C   0  0  0  0  0  0  0  0  0  0  0  0
   12.0610   15.0010   22.0580 C   0  0  0  0  0  0  0  0  0  0  0  0
   11.4950   16.0210   22.9250 O   0  0  0  0  0  0  0  0  0  0  0  0
   12.3770   13.6240   22.2960 N   0  0  0  0  0  0  0  0  0  0  0  0
   12.4270   13.0810   23.5320 C   0  0  1  0  0  0  0  0  0  0  0  0
   13.1660   13.7260   24.4740 C   0  0  0  0  0  0  0  0  0  0  0  0
   13.7250   12.9970   25.6440 C   0  0  0  0  0  0  0  0  0  0  0  0
   14.6130   11.9340   25.6170 C   0  0  0  0  0  0  0  0  0  0  0  0
   14.9120   11.5590   26.9170 N   0  0  0  0  0  0  0  0  0  0  0  0
   14.2090   12.3880   27.8100 C   0  0  0  0  0  0  0  0  0  0  0  0
   14.2300   12.3630   29.3350 C   0  0  0  0  0  0  0  0  0  0  0  0
   13.4270   13.3300   30.2080 C   0  0  0  0  0  0  0  0  0  0  0  0
   12.5800   14.3260   29.4150 C   0  0  0  0  0  0  0  0  0  0  0  0
   12.6110   14.2760   27.8810 C   0  0  0  0  0  0  0  0  0  0  0  0
   13.4560   13.2850   27.0480 C   0  0  0  0  0  0  0  0  0  0  0  0
   11.0010   13.1920   24.0000 C   0  0  0  0  0  0  0  0  0  0  0  0
   10.4940   14.4170   24.5520 O   0  0  0  0  0  0  0  0  0  0  0  0
   10.2640   12.0770   23.8720 N   0  0  0  0  0  0  0  0  0  0  0  0
   10.9570   10.8470   23.5580 C   0  0  0  0  0  0  0  0  0  0  0  0
   10.3360    9.6850   24.3470 C   0  0  0  0  0  0  0  0  0  0  0  0
    8.8910    9.5340   24.1110 N   0  0  0  0  0  0  0  0  0  0  0  0
    8.6350    8.2580   23.7790 C   0  0  0  0  0  0  0  0  0  0  0  0
    7.9940   10.3610   24.8650 C   0  0  0  0  0  0  0  0  0  0  0  0
    7.1210    9.9620   25.8590 C   0  0  0  0  0  0  0  0  0  0  0  0
    6.2920   10.8570   26.5370 C   0  0  0  0  0  0  0  0  0  0  0  0
    6.3120   12.2130   26.2340 C   0  0  0  0  0  0  0  0  0  0  0  0
    7.1670   12.6550   25.2450 C   0  0  0  0  0  0  0  0  0  0  0  0
    7.9760   11.7330   24.5900 C   0  0  0  0  0  0  0  0  0  0  0  0
    8.8830   12.1310   23.5370 C   0  0  0  0  0  0  0  0  0  0  0  0
   12.4660   14.7120   19.9650 H   0  0  0  0  0  0  0  0  0  0  0  0
   13.2570   16.0990   20.7230 H   0  0  0  0  0  0  0  0  0  0  0  0
   11.5230   16.1610   20.3310 H   0  0  0  0  0  0  0  0  0  0  0  0
   12.1460   12.9260   21.5710 H   0  0  0  0  0  0  0  0  0  0  0  0
   12.7100   12.0330   23.4060 H   0  0  0  0  0  0  0  0  0  0  0  0
   12.6030   14.5840   24.8390 H   0  0  0  0  0  0  0  0  0  0  0  0
   14.0100   14.1630   23.9500 H   0  0  0  0  0  0  0  0  0  0  0  0
   15.0140   11.4750   24.7150 H   0  0  0  0  0  0  0  0  0  0  0  0
   15.5380   10.8140   27.1920 H   0  0  0  0  0  0  0  0  0  0  0  0
   14.8570   11.6160   29.8400 H   0  0  0  0  0  0  0  0  0  0  0  0
   13.5150   13.2350   31.2930 H   0  0  0  0  0  0  0  0  0  0  0  0
   11.9290   15.1010   29.8430 H   0  0  0  0  0  0  0  0  0  0  0  0
   11.9980   15.0000   27.3280 H   0  0  0  0  0  0  0  0  0  0  0  0
   10.8380   10.6440   22.4900 H   0  0  0  0  0  0  0  0  0  0  0  0
   12.0260   10.9630   23.7600 H   0  0  0  0  0  0  0  0  0  0  0  0
   10.4270    9.9290   25.3990 H   0  0  0  0  0  0  0  0  0  0  0  0
   10.7930    8.6950   24.2500 H   0  0  0  0  0  0  0  0  0  0  0  0
    7.8410    8.0990   23.0540 H   0  0  0  0  0  0  0  0  0  0  0  0
    9.5310    7.8150   23.3400 H   0  0  0  0  0  0  0  0  0  0  0  0
    8.4120    7.6620   24.6640 H   0  0  0  0  0  0  0  0  0  0  0  0
    7.0630    8.9390   26.1350 H   0  0  0  0  0  0  0  0  0  0  0  0
    5.6240   10.4870   27.3110 H   0  0  0  0  0  0  0  0  0  0  0  0
    5.6670   12.9080   26.7620 H   0  0  0  0  0  0  0  0  0  0  0  0
    7.1950   13.7110   24.9900 H   0  0  0  0  0  0  0  0  0  0  0  0
    8.7390   11.3430   22.8330 H   0  0  0  0  0  0  0  0  0  0  0  0
    8.6100   13.0800   23.0640 H   0  0  0  0  0  0  0  0  0  0  0  0
  1  2  1  0
  2  3  2  0
  2  4  1  0
  4  5  1  0
  5  6  1  0
  6  7  1  0
  7  8  2  0
  8  9  1  0
  9 10  1  0
 10 11  2  0
 11 12  1  0
 12 13  2  0
 13 14  1  0
 14 15  2  0
  5 16  1  0
 16 17  2  0
 16 18  1  0
 18 19  1  0
 19 20  1  0
 20 21  1  0
 21 22  1  0
 21 23  1  0
 23 24  2  0
 24 25  1  0
 25 26  2  0
 26 27  1  0
 27 28  2  0
 28 29  1  0
 15  7  1  0
 29 18  1  0
 15 10  1  0
 28 23  1  0
  1 30  1  0
  1 31  1  0
  1 32  1  0
  4 33  1  0
  5 34  1  6
  6 35  1  0
  6 36  1  0
  8 37  1  0
  9 38  1  0
 11 39  1  0
 12 40  1  0
 13 41  1  0
 14 42  1  0
 19 43  1  0
 19 44  1  0
 20 45  1  0
 20 46  1  0
 22 47  1  0
 22 48  1  0
 22 49  1  0
 24 50  1  0
 25 51  1  0
 26 52  1  0
 27 53  1  0
 29 54  1  0
 29 55  1  0
A    1
 C1 
A    2
 C2 
A    3
 O1 
A    4
 N1 
A    5
 C3 
A    6
 C4 
A    7
 C5 
A    8
 C6 
A    9
 N2 
A   10
 C7 
A   11
 C8 
A   12
 C9 
A   13
 C10
A   14
 C11
A   15
 C12
A   16
 C13
A   17
 O2 
A   18
 N3 
A   19
 C14
A   20
 C15
A   21
 N4 
A   22
 C16
A   23
 C17
A   24
 C18
A   25
 C19
A   26
 C20
A   27
 C21
A   28
 C22
A   29
 C23
A   30
 H1 
A   31
 H2 
A   32
 H3 
A   33
 H4 
A   34
 H5 
A   35
 H6 
A   36
 H7 
A   37
 H8 
A   38
 H9 
A   39
 H10
A   40
 H11
A   41
 H12
A   42
 H13
A   43
 H14
A   44
 H15
A   45
 H16
A   46
 H17
A   47
 H18
A   48
 H19
A   49
 H20
A   50
 H21
A   51
 H22
A   52
 H23
A   53
 H24
A   54
 H25
A   55
 H26
M  END
>  <ref_pdb>  (23) 
x0451_0A

>  <ref_mols>  (23) 
x0451_0A,x0554_0A,x0556_0A,x0566_0A,x0310_0A,x0416_0A

>  <original SMILES>  (23) 
CC(=O)N[C@@H](Cc1c[nH]c2ccccc12)C(=O)N1CCN(C)c2ccccc2C1

>  <rationale>  (23) 
info info set:ROCS-PPI;Warhead nanÅ to Cys110:SG; hbond:S87+S125+G108; hydroph_interaction:Y89+Y90+P107; 

>  <∆∆G>  (23) 
-9.664306

>  <comRMSD>  (23) 
0.412468

>  <ROCS_TanimotoCombo>  (23) 
0.552

>  <ROCS_ShapeTanimoto>  (23) 
0.387

>  <ROCS_ColorTanimoto>  (23) 
0.165

>  <distance>  (23) 
nan

$$$$
EN300_12452795
     RDKit          3D

 33 34  0  0  0  0  0  0  0  0999 V2000
    9.1980    8.3910   23.4190 C   0  0  0  0  0  0  0  0  0  0  0  0
    9.1710    9.8440   23.7650 C   0  0  0  0  0  0  0  0  0  0  0  0
   10.1730   10.7980   23.1700 N   0  0  0  0  0  0  0  0  0  0  0  0
    9.8010   12.0130   23.7330 N   0  0  0  0  0  0  0  0  0  0  0  0
   10.5050   13.2170   23.4250 C   0  0  0  0  0  0  0  0  0  0  0  0
   10.7420   14.0700   24.2900 O   0  0  0  0  0  0  0  0  0  0  0  0
   10.8400   13.2640   22.0960 O   0  0  0  0  0  0  0  0  0  0  0  0
   10.9660   14.5170   21.3610 C   0  0  0  0  0  0  0  0  0  0  0  0
    9.6740   15.2960   21.4050 C   0  0  0  0  0  0  0  0  0  0  0  0
   12.0340   15.2850   22.1140 C   0  0  0  0  0  0  0  0  0  0  0  0
   11.4910   14.3820   19.9200 C   0  0  0  0  0  0  0  0  0  0  0  0
    8.6460   11.7680   24.6110 C   0  0  0  0  0  0  0  0  0  0  0  0
    7.9520   12.8500   25.4070 C   0  0  0  0  0  0  0  0  0  0  0  0
    8.3220   14.1330   25.3880 F   0  0  0  0  0  0  0  0  0  0  0  0
    6.7620   12.4450   26.2780 C   0  0  0  0  0  0  0  0  0  0  0  0
    6.3990   11.0730   26.2720 C   0  0  0  0  0  0  0  0  0  0  0  0
    7.0770   10.1170   25.5170 C   0  0  0  0  0  0  0  0  0  0  0  0
    8.2710   10.4600   24.6270 C   0  0  0  0  0  0  0  0  0  0  0  0
    8.4900    8.1680   22.6220 H   0  0  0  0  0  0  0  0  0  0  0  0
    8.9110    7.7870   24.2850 H   0  0  0  0  0  0  0  0  0  0  0  0
   10.1920    8.0870   23.0770 H   0  0  0  0  0  0  0  0  0  0  0  0
    9.2740   15.3560   20.3850 H   0  0  0  0  0  0  0  0  0  0  0  0
    8.9410   14.7170   21.9790 H   0  0  0  0  0  0  0  0  0  0  0  0
    9.6670   16.3040   21.8150 H   0  0  0  0  0  0  0  0  0  0  0  0
   12.8320   15.6320   21.4460 H   0  0  0  0  0  0  0  0  0  0  0  0
   12.5110   14.6500   22.8700 H   0  0  0  0  0  0  0  0  0  0  0  0
   11.6180   16.1540   22.6210 H   0  0  0  0  0  0  0  0  0  0  0  0
   10.7630   13.9020   19.2740 H   0  0  0  0  0  0  0  0  0  0  0  0
   11.7400   15.3420   19.4910 H   0  0  0  0  0  0  0  0  0  0  0  0
   12.3850   13.7530   19.8860 H   0  0  0  0  0  0  0  0  0  0  0  0
    6.2280   13.1850   26.8710 H   0  0  0  0  0  0  0  0  0  0  0  0
    5.5520   10.7480   26.8860 H   0  0  0  0  0  0  0  0  0  0  0  0
    6.6690    9.1190   25.6320 H   0  0  0  0  0  0  0  0  0  0  0  0
  1  2  1  0
  2  3  2  0
  3  4  1  0
  4  5  1  0
  5  6  2  0
  5  7  1  0
  7  8  1  0
  8  9  1  0
  8 10  1  0
  8 11  1  0
  4 12  1  0
 12 13  2  0
 13 14  1  0
 13 15  1  0
 15 16  2  0
 16 17  1  0
 17 18  2  0
 18  2  1  0
 18 12  1  0
  1 19  1  0
  1 20  1  0
  1 21  1  0
  9 22  1  0
  9 23  1  0
  9 24  1  0
 10 25  1  0
 10 26  1  0
 10 27  1  0
 11 28  1  0
 11 29  1  0
 11 30  1  0
 15 31  1  0
 16 32  1  0
 17 33  1  0
A    1
 C1 
A    2
 C2 
A    3
 N1 
A    4
 N2 
A    5
 C3 
A    6
 O1 
A    7
 O2 
A    8
 C4 
A    9
 C5 
A   10
 C6 
A   11
 C7 
A   12
 C8 
A   13
 C9 
A   14
 F1 
A   15
 C10
A   16
 C11
A   17
 C12
A   18
 C13
A   19
 H1 
A   20
 H2 
A   21
 H3 
A   22
 H4 
A   23
 H5 
A   24
 H6 
A   25
 H7 
A   26
 H8 
A   27
 H9 
A   28
 H10
A   29
 H11
A   30
 H12
A   31
 H13
A   32
 H14
A   33
 H15
M  END
>  <ref_pdb>  (24) 
x0451_0A

>  <ref_mols>  (24) 
x0451_0A,x0554_0A,x0556_0A,x0566_0A,x0310_0A,x0416_0A

>  <original SMILES>  (24) 
Cc1nn(C(=O)OC(C)(C)C)c2c(F)cccc12

>  <rationale>  (24) 
info info set:ROCS-BB-0RB;Warhead nanÅ to Cys110:SG; hydroph_interaction:Y89+V124+D109; 

>  <∆∆G>  (24) 
-9.654166

>  <comRMSD>  (24) 
0.332359

>  <ROCS_TanimotoCombo>  (24) 
0.479

>  <ROCS_ShapeTanimoto>  (24) 
0.344

>  <ROCS_ColorTanimoto>  (24) 
0.135

>  <distance>  (24) 
nan

$$$$
EN300_624596
     RDKit          3D

 38 39  0  0  0  0  0  0  0  0999 V2000
    8.3500   14.3930   25.2940 C   0  0  0  0  0  0  0  0  0  0  0  0
    7.8980   12.9860   25.4220 C   0  0  0  0  0  0  0  0  0  0  0  0
    6.7790   12.6540   26.2730 C   0  0  0  0  0  0  0  0  0  0  0  0
    6.5100   11.2970   26.2650 C   0  0  0  0  0  0  0  0  0  0  0  0
    7.1700   10.2170   25.5520 C   0  0  0  0  0  0  0  0  0  0  0  0
    8.2240   10.6170   24.7640 C   0  0  0  0  0  0  0  0  0  0  0  0
    9.1240    9.7750   23.9030 C   0  0  0  0  0  0  0  0  0  0  0  0
    8.8720    8.2740   23.8830 C   0  0  0  0  0  0  0  0  0  0  0  0
    8.7240    7.5250   22.7150 C   0  0  0  0  0  0  0  0  0  0  0  0
    8.3250    6.1390   22.9710 N   0  0  0  0  0  0  0  0  0  0  0  0
   10.0210   10.6070   23.3090 C   0  0  0  0  0  0  0  0  0  0  0  0
    9.7160   11.9920   23.7790 N   0  0  0  0  0  0  0  0  0  0  0  0
   10.4870   13.0930   23.3330 C   0  0  0  0  0  0  0  0  0  0  0  0
   10.7700   13.9410   24.1660 O   0  0  0  0  0  0  0  0  0  0  0  0
   10.8500   13.1920   22.1590 O   0  0  0  0  0  0  0  0  0  0  0  0
   11.1060   14.4780   21.5190 C   0  0  0  0  0  0  0  0  0  0  0  0
   12.0920   15.2620   22.2990 C   0  0  0  0  0  0  0  0  0  0  0  0
    9.7450   15.1960   21.5570 C   0  0  0  0  0  0  0  0  0  0  0  0
   11.5450   14.3840   20.0480 C   0  0  0  0  0  0  0  0  0  0  0  0
    8.6000   11.9600   24.6810 C   0  0  0  0  0  0  0  0  0  0  0  0
    8.5040   14.6500   24.2430 H   0  0  0  0  0  0  0  0  0  0  0  0
    9.2920   14.5470   25.8330 H   0  0  0  0  0  0  0  0  0  0  0  0
    7.6090   15.0830   25.7090 H   0  0  0  0  0  0  0  0  0  0  0  0
    6.2150   13.3700   26.8500 H   0  0  0  0  0  0  0  0  0  0  0  0
    5.6740   10.9640   26.8840 H   0  0  0  0  0  0  0  0  0  0  0  0
    6.7870    9.2080   25.6990 H   0  0  0  0  0  0  0  0  0  0  0  0
    7.6220    5.7760   22.3330 H   0  0  0  0  0  0  0  0  0  0  0  0
    9.0810    5.4600   23.0380 H   0  0  0  0  0  0  0  0  0  0  0  0
   10.8370   10.4020   22.6160 H   0  0  0  0  0  0  0  0  0  0  0  0
   12.5690   14.6490   23.0710 H   0  0  0  0  0  0  0  0  0  0  0  0
   12.8740   15.6710   21.6460 H   0  0  0  0  0  0  0  0  0  0  0  0
   11.6140   16.1130   22.7930 H   0  0  0  0  0  0  0  0  0  0  0  0
    9.8110   16.0940   22.1780 H   0  0  0  0  0  0  0  0  0  0  0  0
    9.0140   14.5450   22.0180 H   0  0  0  0  0  0  0  0  0  0  0  0
    9.2890   15.4990   20.6080 H   0  0  0  0  0  0  0  0  0  0  0  0
   12.3990   13.7270   19.9330 H   0  0  0  0  0  0  0  0  0  0  0  0
   11.8280   15.3710   19.6670 H   0  0  0  0  0  0  0  0  0  0  0  0
   10.7520   13.9890   19.4050 H   0  0  0  0  0  0  0  0  0  0  0  0
  1  2  1  0
  2  3  2  0
  3  4  1  0
  4  5  2  0
  5  6  1  0
  6  7  1  0
  7  8  1  0
  8  9  3  0
  9 10  1  0
  7 11  2  0
 11 12  1  0
 12 13  1  0
 13 14  2  0
 13 15  1  0
 15 16  1  0
 16 17  1  0
 16 18  1  0
 16 19  1  0
 12 20  1  0
 20  2  1  0
 20  6  2  0
  1 21  1  0
  1 22  1  0
  1 23  1  0
  3 24  1  0
  4 25  1  0
  5 26  1  0
 10 27  1  0
 10 28  1  0
 11 29  1  0
 17 30  1  0
 17 31  1  0
 17 32  1  0
 18 33  1  0
 18 34  1  0
 18 35  1  0
 19 36  1  0
 19 37  1  0
 19 38  1  0
A    1
 C1 
A    2
 C2 
A    3
 C3 
A    4
 C4 
A    5
 C5 
A    6
 C6 
A    7
 C7 
A    8
 C8 
A    9
 C9 
A   10
 N1 
A   11
 C10
A   12
 N2 
A   13
 C11
A   14
 O1 
A   15
 O2 
A   16
 C12
A   17
 C13
A   18
 C14
A   19
 C15
A   20
 C16
A   21
 H1 
A   22
 H2 
A   23
 H3 
A   24
 H4 
A   25
 H5 
A   26
 H6 
A   27
 H7 
A   28
 H8 
A   29
 H9 
A   30
 H10
A   31
 H11
A   32
 H12
A   33
 H13
A   34
 H14
A   35
 H15
A   36
 H16
A   37
 H17
A   38
 H18
M  END
>  <ref_pdb>  (25) 
x0451_0A

>  <ref_mols>  (25) 
x0451_0A,x0554_0A,x0556_0A,x0566_0A,x0310_0A,x0416_0A

>  <original SMILES>  (25) 
Cc1cccc2c(C#CN)cn(C(=O)OC(C)(C)C)c12

>  <rationale>  (25) 
info info set:ROCS-BB-0RB;Warhead nanÅ to Cys110:SG; hbond:H104; hydroph_interaction:Y89+D109; 

>  <∆∆G>  (25) 
-9.549648

>  <comRMSD>  (25) 
0.363611

>  <ROCS_TanimotoCombo>  (25) 
0.481

>  <ROCS_ShapeTanimoto>  (25) 
0.348

>  <ROCS_ColorTanimoto>  (25) 
0.133

>  <distance>  (25) 
nan

$$$$
EN300_28298776
     RDKit          3D

 43 44  0  0  0  0  0  0  0  0999 V2000
    8.5960    8.0740   23.6760 C   0  0  0  0  0  0  0  0  0  0  0  0
    8.7990    9.5600   23.9420 C   0  0  0  0  0  0  0  0  0  0  0  0
    9.9870   10.0840   23.2470 C   0  0  0  0  0  0  0  0  0  0  0  0
   10.3080   11.4370   23.4650 C   0  0  0  0  0  0  0  0  0  0  0  0
   11.3700   11.8480   22.8690 C   0  0  0  0  0  0  0  0  0  0  0  0
   10.8810   11.1820   24.8270 C   0  0  0  0  0  0  0  0  0  0  0  0
    9.2850   12.3020   23.5620 N   0  0  0  0  0  0  0  0  0  0  0  0
    9.8230   13.6600   23.4210 C   0  0  0  0  0  0  0  0  0  0  0  0
   10.0920   14.4170   24.3490 O   0  0  0  0  0  0  0  0  0  0  0  0
   10.0140   13.9790   22.2500 O   0  0  0  0  0  0  0  0  0  0  0  0
   11.2510   14.6240   21.8370 C   0  0  0  0  0  0  0  0  0  0  0  0
   12.4500   14.0630   22.5760 C   0  0  0  0  0  0  0  0  0  0  0  0
   11.5290   14.5960   20.3210 C   0  0  0  0  0  0  0  0  0  0  0  0
   11.0360   16.0590   22.2350 C   0  0  0  0  0  0  0  0  0  0  0  0
    8.3150   11.9360   24.5430 C   0  0  0  0  0  0  0  0  0  0  0  0
    7.6650   12.9100   25.2590 C   0  0  0  0  0  0  0  0  0  0  0  0
    6.6670   12.4970   26.2730 C   0  0  0  0  0  0  0  0  0  0  0  0
    5.7630   13.8260   27.2680 Br  0  0  0  0  0  0  0  0  0  0  0  0
    6.4130   11.1340   26.4720 C   0  0  0  0  0  0  0  0  0  0  0  0
    7.0920   10.1790   25.7280 C   0  0  0  0  0  0  0  0  0  0  0  0
    8.0380   10.5510   24.7680 C   0  0  0  0  0  0  0  0  0  0  0  0
    7.7980    7.8880   22.9610 H   0  0  0  0  0  0  0  0  0  0  0  0
    9.5110    7.6630   23.2450 H   0  0  0  0  0  0  0  0  0  0  0  0
    8.3920    7.5210   24.5910 H   0  0  0  0  0  0  0  0  0  0  0  0
   10.6080    9.4550   22.6120 H   0  0  0  0  0  0  0  0  0  0  0  0
   11.2930   12.6810   22.1760 H   0  0  0  0  0  0  0  0  0  0  0  0
   11.6880   10.9930   22.3610 H   0  0  0  0  0  0  0  0  0  0  0  0
   12.1270   12.0970   23.6180 H   0  0  0  0  0  0  0  0  0  0  0  0
   11.9700   11.2940   24.8330 H   0  0  0  0  0  0  0  0  0  0  0  0
   10.6560   10.1740   25.1880 H   0  0  0  0  0  0  0  0  0  0  0  0
   10.4640   11.8730   25.5720 H   0  0  0  0  0  0  0  0  0  0  0  0
   13.2920   14.7450   22.5260 H   0  0  0  0  0  0  0  0  0  0  0  0
   12.7540   13.1070   22.1410 H   0  0  0  0  0  0  0  0  0  0  0  0
   12.2240   13.8840   23.6290 H   0  0  0  0  0  0  0  0  0  0  0  0
   11.8480   15.6100   20.0390 H   0  0  0  0  0  0  0  0  0  0  0  0
   12.3190   13.8840   20.0600 H   0  0  0  0  0  0  0  0  0  0  0  0
   10.6470   14.3360   19.7270 H   0  0  0  0  0  0  0  0  0  0  0  0
   10.0600   16.4270   21.9000 H   0  0  0  0  0  0  0  0  0  0  0  0
   11.0970   16.1720   23.3110 H   0  0  0  0  0  0  0  0  0  0  0  0
   11.8100   16.6970   21.8050 H   0  0  0  0  0  0  0  0  0  0  0  0
    7.8780   13.9670   25.0860 H   0  0  0  0  0  0  0  0  0  0  0  0
    5.6830   10.8100   27.2100 H   0  0  0  0  0  0  0  0  0  0  0  0
    6.8590    9.1460   25.9230 H   0  0  0  0  0  0  0  0  0  0  0  0
  1  2  1  0
  2  3  2  0
  3  4  1  0
  4  5  1  0
  4  6  1  0
  4  7  1  0
  7  8  1  0
  8  9  2  0
  8 10  1  0
 10 11  1  0
 11 12  1  0
 11 13  1  0
 11 14  1  0
  7 15  1  0
 15 16  2  0
 16 17  1  0
 17 18  1  0
 17 19  2  0
 19 20  1  0
 20 21  2  0
 21  2  1  0
 21 15  1  0
  1 22  1  0
  1 23  1  0
  1 24  1  0
  3 25  1  0
  5 26  1  0
  5 27  1  0
  5 28  1  0
  6 29  1  0
  6 30  1  0
  6 31  1  0
 12 32  1  0
 12 33  1  0
 12 34  1  0
 13 35  1  0
 13 36  1  0
 13 37  1  0
 14 38  1  0
 14 39  1  0
 14 40  1  0
 16 41  1  0
 19 42  1  0
 20 43  1  0
A    1
 C1 
A    2
 C2 
A    3
 C3 
A    4
 C4 
A    5
 C5 
A    6
 C6 
A    7
 N1 
A    8
 C7 
A    9
 O1 
A   10
 O2 
A   11
 C8 
A   12
 C9 
A   13
 C10
A   14
 C11
A   15
 C12
A   16
 C13
A   17
 C14
A   18
BR1 
A   19
 C15
A   20
 C16
A   21
 C17
A   22
 H1 
A   23
 H2 
A   24
 H3 
A   25
 H4 
A   26
 H5 
A   27
 H6 
A   28
 H7 
A   29
 H8 
A   30
 H9 
A   31
 H10
A   32
 H11
A   33
 H12
A   34
 H13
A   35
 H14
A   36
 H15
A   37
 H16
A   38
 H17
A   39
 H18
A   40
 H19
A   41
 H20
A   42
 H21
A   43
 H22
M  END
>  <ref_pdb>  (26) 
x0451_0A

>  <ref_mols>  (26) 
x0451_0A,x0554_0A,x0556_0A,x0566_0A,x0310_0A,x0416_0A

>  <original SMILES>  (26) 
CC1=CC(C)(C)N(C(=O)OC(C)(C)C)c2cc(Br)ccc21

>  <rationale>  (26) 
info info set:ROCS-BB-0RB;Warhead nanÅ to Cys110:SG; hydroph_interaction:A110+D109; 

>  <∆∆G>  (26) 
-9.54863

>  <comRMSD>  (26) 
1.008178

>  <ROCS_TanimotoCombo>  (26) 
0.48

>  <ROCS_ShapeTanimoto>  (26) 
0.361

>  <ROCS_ColorTanimoto>  (26) 
0.12

>  <distance>  (26) 
nan

$$$$
Z915680604
     RDKit          3D

 54 56  0  0  0  0  0  0  0  0999 V2000
    9.8860    8.5780   23.0610 C   0  0  0  0  0  0  0  0  0  0  0  0
    9.5290    9.8790   23.6000 C   0  0  0  0  0  0  0  0  0  0  0  0
   10.3100   11.0430   23.3410 C   0  0  0  0  0  0  0  0  0  0  0  0
    9.6860   12.2570   24.0180 C   0  0  0  0  0  0  0  0  0  0  0  0
   10.4140   13.5660   23.8480 C   0  0  0  0  0  0  0  0  0  0  0  0
   10.8420   14.1030   24.8690 O   0  0  0  0  0  0  0  0  0  0  0  0
   10.6120   14.1940   22.6020 N   0  0  0  0  0  0  0  0  0  0  0  0
    9.5680   14.3430   21.6110 C   0  0  0  0  0  0  0  0  0  0  0  0
    8.9490   15.6030   21.4490 C   0  0  0  0  0  0  0  0  0  0  0  0
    9.6880   16.6200   20.7040 N   0  0  0  0  0  0  0  0  0  0  0  0
    8.9090   17.8520   20.6610 C   0  0  0  0  0  0  0  0  0  0  0  0
   10.0650   16.2100   19.4110 C   0  0  0  0  0  0  0  0  0  0  0  0
   11.9500   14.6850   22.3060 C   0  0  0  0  0  0  0  0  0  0  0  0
   12.7460   13.7410   23.1190 C   0  0  0  0  0  0  0  0  0  0  0  0
   12.6740   12.4210   23.1020 C   0  0  0  0  0  0  0  0  0  0  0  0
   13.6000   11.8490   24.0680 C   0  0  0  0  0  0  0  0  0  0  0  0
   14.2330   12.8720   24.6410 C   0  0  0  0  0  0  0  0  0  0  0  0
   15.2960   12.7260   25.7140 C   0  0  0  0  0  0  0  0  0  0  0  0
   13.7220   14.0620   24.0780 O   0  0  0  0  0  0  0  0  0  0  0  0
    8.5270   12.1800   24.7620 C   0  0  0  0  0  0  0  0  0  0  0  0
    7.7010   13.0620   25.4880 C   0  0  0  0  0  0  0  0  0  0  0  0
    7.8760   14.5200   25.6620 C   0  0  0  0  0  0  0  0  0  0  0  0
    6.6710   12.4290   26.0530 N   0  0  0  0  0  0  0  0  0  0  0  0
    6.8430   11.1470   25.6850 N   0  0  0  0  0  0  0  0  0  0  0  0
    5.8890   10.1880   26.1600 C   0  0  0  0  0  0  0  0  0  0  0  0
    7.9490   10.9440   24.8880 C   0  0  0  0  0  0  0  0  0  0  0  0
    8.3910    9.8050   24.3460 N   0  0  0  0  0  0  0  0  0  0  0  0
   10.9060    8.3090   23.3300 H   0  0  0  0  0  0  0  0  0  0  0  0
    9.2120    7.8010   23.4350 H   0  0  0  0  0  0  0  0  0  0  0  0
    9.8130    8.6070   21.9770 H   0  0  0  0  0  0  0  0  0  0  0  0
   11.2090   11.0590   22.7510 H   0  0  0  0  0  0  0  0  0  0  0  0
    9.9720   14.0030   20.6520 H   0  0  0  0  0  0  0  0  0  0  0  0
    8.7740   13.6750   21.9380 H   0  0  0  0  0  0  0  0  0  0  0  0
    8.6690   16.0430   22.4110 H   0  0  0  0  0  0  0  0  0  0  0  0
    8.0100   15.4350   20.9170 H   0  0  0  0  0  0  0  0  0  0  0  0
    7.9720   17.7230   21.2110 H   0  0  0  0  0  0  0  0  0  0  0  0
    8.6540   18.1330   19.6330 H   0  0  0  0  0  0  0  0  0  0  0  0
    9.4000   18.7100   21.1240 H   0  0  0  0  0  0  0  0  0  0  0  0
    9.4990   15.3430   19.0530 H   0  0  0  0  0  0  0  0  0  0  0  0
   11.1240   15.9230   19.3920 H   0  0  0  0  0  0  0  0  0  0  0  0
    9.9480   17.0210   18.6980 H   0  0  0  0  0  0  0  0  0  0  0  0
   12.1580   14.5550   21.2380 H   0  0  0  0  0  0  0  0  0  0  0  0
   12.0340   15.7430   22.5250 H   0  0  0  0  0  0  0  0  0  0  0  0
   12.0060   11.8450   22.4660 H   0  0  0  0  0  0  0  0  0  0  0  0
   13.6880   10.7860   24.2300 H   0  0  0  0  0  0  0  0  0  0  0  0
   16.1890   13.2800   25.4360 H   0  0  0  0  0  0  0  0  0  0  0  0
   14.9340   13.0970   26.6760 H   0  0  0  0  0  0  0  0  0  0  0  0
   15.5760   11.6760   25.8440 H   0  0  0  0  0  0  0  0  0  0  0  0
    6.9350   14.9860   25.9740 H   0  0  0  0  0  0  0  0  0  0  0  0
    8.6360   14.7310   26.4200 H   0  0  0  0  0  0  0  0  0  0  0  0
    8.1950   15.0010   24.7310 H   0  0  0  0  0  0  0  0  0  0  0  0
    5.4260    9.6940   25.3280 H   0  0  0  0  0  0  0  0  0  0  0  0
    5.1230   10.6900   26.7560 H   0  0  0  0  0  0  0  0  0  0  0  0
    6.4150    9.4720   26.7830 H   0  0  0  0  0  0  0  0  0  0  0  0
  1  2  1  0
  2  3  2  0
  3  4  1  0
  4  5  1  0
  5  6  2  0
  5  7  1  0
  7  8  1  0
  8  9  1  0
  9 10  1  0
 10 11  1  0
 10 12  1  0
  7 13  1  0
 13 14  1  0
 14 15  2  0
 15 16  1  0
 16 17  2  0
 17 18  1  0
 17 19  1  0
  4 20  2  0
 20 21  1  0
 21 22  1  0
 21 23  2  0
 23 24  1  0
 24 25  1  0
 24 26  1  0
 26 27  2  0
 27  2  1  0
 19 14  1  0
 26 20  1  0
  1 28  1  0
  1 29  1  0
  1 30  1  0
  3 31  1  0
  8 32  1  0
  8 33  1  0
  9 34  1  0
  9 35  1  0
 11 36  1  0
 11 37  1  0
 11 38  1  0
 12 39  1  0
 12 40  1  0
 12 41  1  0
 13 42  1  0
 13 43  1  0
 15 44  1  0
 16 45  1  0
 18 46  1  0
 18 47  1  0
 18 48  1  0
 22 49  1  0
 22 50  1  0
 22 51  1  0
 25 52  1  0
 25 53  1  0
 25 54  1  0
A    1
 C1 
A    2
 C2 
A    3
 C3 
A    4
 C4 
A    5
 C5 
A    6
 O1 
A    7
 N1 
A    8
 C6 
A    9
 C7 
A   10
 N2 
A   11
 C8 
A   12
 C9 
A   13
 C10
A   14
 C11
A   15
 C12
A   16
 C13
A   17
 C14
A   18
 C15
A   19
 O2 
A   20
 C16
A   21
 C17
A   22
 C18
A   23
 N3 
A   24
 N4 
A   25
 C19
A   26
 C20
A   27
 N5 
A   28
 H1 
A   29
 H2 
A   30
 H3 
A   31
 H4 
A   32
 H5 
A   33
 H6 
A   34
 H7 
A   35
 H8 
A   36
 H9 
A   37
 H10
A   38
 H11
A   39
 H12
A   40
 H13
A   41
 H14
A   42
 H15
A   43
 H16
A   44
 H17
A   45
 H18
A   46
 H19
A   47
 H20
A   48
 H21
A   49
 H22
A   50
 H23
A   51
 H24
A   52
 H25
A   53
 H26
A   54
 H27
M  END
>  <ref_pdb>  (27) 
x0451_0A

>  <ref_mols>  (27) 
x0451_0A,x0554_0A,x0556_0A,x0566_0A,x0310_0A,x0416_0A

>  <original SMILES>  (27) 
Cc1cc(C(=O)N(CCN(C)C)Cc2ccc(C)o2)c2c(C)nn(C)c2n1

>  <rationale>  (27) 
info info set:ROCS-PPI;Warhead nanÅ to Cys110:SG; hbond:S87; hydroph_interaction:Y89+A110+V124+D109+L22; pication:H21; 

>  <∆∆G>  (27) 
-9.539093

>  <comRMSD>  (27) 
0.84294

>  <ROCS_TanimotoCombo>  (27) 
0.557

>  <ROCS_ShapeTanimoto>  (27) 
0.364

>  <ROCS_ColorTanimoto>  (27) 
0.193

>  <distance>  (27) 
nan

$$$$
Z26509549
     RDKit          3D

 31 32  0  0  0  0  0  0  0  0999 V2000
    6.2230   10.0960   26.0400 C   0  0  0  0  0  0  0  0  0  0  0  0
    7.3850   10.5740   25.2380 C   0  0  0  0  0  0  0  0  0  0  0  0
    7.5740   11.9410   25.1260 C   0  0  0  0  0  0  0  0  0  0  0  0
    8.6380   12.4610   24.4010 C   0  0  0  0  0  0  0  0  0  0  0  0
    9.5430   11.6190   23.7680 C   0  0  0  0  0  0  0  0  0  0  0  0
   10.6350   12.1330   23.0400 N   0  0  0  0  0  0  0  0  0  0  0  0
   11.1290   13.4070   23.2140 C   0  0  0  0  0  0  0  0  0  0  0  0
   10.7730   14.2070   24.0800 O   0  0  0  0  0  0  0  0  0  0  0  0
   12.2160   13.7940   22.2150 C   0  0  0  0  0  0  0  0  0  0  0  0
   11.7490   14.8090   21.2800 N   0  0  0  0  0  0  0  0  0  0  0  0
   11.7240   14.6470   19.8440 C   0  0  0  0  0  0  0  0  0  0  0  0
   10.8620   16.0720   19.1630 S   0  0  0  0  0  0  0  0  0  0  0  0
   10.3840   16.6980   20.7890 C   0  0  0  0  0  0  0  0  0  0  0  0
   11.2440   15.9580   21.7780 C   0  0  0  0  0  0  0  0  0  0  0  0
   11.4650   16.3170   22.9130 O   0  0  0  0  0  0  0  0  0  0  0  0
    9.3510   10.2290   23.8710 C   0  0  0  0  0  0  0  0  0  0  0  0
   10.2000    9.3870   23.2660 F   0  0  0  0  0  0  0  0  0  0  0  0
    8.2820    9.7040   24.6020 C   0  0  0  0  0  0  0  0  0  0  0  0
    5.5180    9.5510   25.4290 H   0  0  0  0  0  0  0  0  0  0  0  0
    5.6810   10.9410   26.4710 H   0  0  0  0  0  0  0  0  0  0  0  0
    6.5610    9.4490   26.8410 H   0  0  0  0  0  0  0  0  0  0  0  0
    6.8840   12.6280   25.6090 H   0  0  0  0  0  0  0  0  0  0  0  0
    8.7340   13.5420   24.3530 H   0  0  0  0  0  0  0  0  0  0  0  0
   10.7890   11.7370   22.0980 H   0  0  0  0  0  0  0  0  0  0  0  0
   12.5780   12.9090   21.6940 H   0  0  0  0  0  0  0  0  0  0  0  0
   13.0520   14.2130   22.7800 H   0  0  0  0  0  0  0  0  0  0  0  0
   11.1960   13.7350   19.5780 H   0  0  0  0  0  0  0  0  0  0  0  0
   12.7440   14.6110   19.4560 H   0  0  0  0  0  0  0  0  0  0  0  0
    9.3320   16.4760   20.9770 H   0  0  0  0  0  0  0  0  0  0  0  0
   10.5580   17.7720   20.8610 H   0  0  0  0  0  0  0  0  0  0  0  0
    8.1680    8.6280   24.6650 H   0  0  0  0  0  0  0  0  0  0  0  0
  1  2  1  0
  2  3  2  0
  3  4  1  0
  4  5  2  0
  5  6  1  0
  6  7  1  0
  7  8  2  0
  7  9  1  0
  9 10  1  0
 10 11  1  0
 11 12  1  0
 12 13  1  0
 13 14  1  0
 14 15  2  0
  5 16  1  0
 16 17  1  0
 16 18  2  0
 18  2  1  0
 14 10  1  0
  1 19  1  0
  1 20  1  0
  1 21  1  0
  3 22  1  0
  4 23  1  0
  6 24  1  0
  9 25  1  0
  9 26  1  0
 11 27  1  0
 11 28  1  0
 13 29  1  0
 13 30  1  0
 18 31  1  0
A    1
 C1 
A    2
 C2 
A    3
 C3 
A    4
 C4 
A    5
 C5 
A    6
 N1 
A    7
 C6 
A    8
 O1 
A    9
 C7 
A   10
 N2 
A   11
 C8 
A   12
 S1 
A   13
 C9 
A   14
 C10
A   15
 O2 
A   16
 C11
A   17
 F1 
A   18
 C12
A   19
 H1 
A   20
 H2 
A   21
 H3 
A   22
 H4 
A   23
 H5 
A   24
 H6 
A   25
 H7 
A   26
 H8 
A   27
 H9 
A   28
 H10
A   29
 H11
A   30
 H12
A   31
 H13
M  END
>  <ref_pdb>  (28) 
x0451_0A

>  <ref_mols>  (28) 
x0451_0A,x0554_0A,x0556_0A,x0566_0A,x0310_0A,x0416_0A

>  <original SMILES>  (28) 
Cc1ccc(NC(=O)CN2CSCC2=O)c(F)c1

>  <rationale>  (28) 
info info set:ROCS-shape_Q1;Warhead nanÅ to Cys110:SG; hbond:S87+S125; 

>  <∆∆G>  (28) 
-9.450101

>  <comRMSD>  (28) 
0.490417

>  <ROCS_TanimotoCombo>  (28) 
0.476

>  <ROCS_ShapeTanimoto>  (28) 
0.315

>  <ROCS_ColorTanimoto>  (28) 
0.161

>  <distance>  (28) 
nan

$$$$
EN300_37446992
     RDKit          3D

 43 44  0  0  0  0  0  0  0  0999 V2000
    9.7690   15.6830   21.3590 C   0  0  0  0  0  0  0  0  0  0  0  0
   10.8890   14.7350   21.5640 C   0  0  0  0  0  0  0  0  0  0  0  0
   11.8750   15.1660   22.4090 C   0  0  0  0  0  0  0  0  0  0  0  0
   11.6180   14.5490   20.2240 C   0  0  0  0  0  0  0  0  0  0  0  0
   10.5850   13.6380   22.0840 O   0  0  0  0  0  0  0  0  0  0  0  0
   10.3010   13.5230   23.4260 C   0  0  0  0  0  0  0  0  0  0  0  0
   10.4590   14.4170   24.2340 O   0  0  0  0  0  0  0  0  0  0  0  0
    9.8310   12.2520   23.6770 N   0  0  0  0  0  0  0  0  0  0  0  0
   10.5450   11.0850   23.4180 C   0  0  0  0  0  0  0  0  0  0  0  0
   10.5270    9.7830   24.2010 C   0  0  0  0  0  0  0  0  0  0  0  0
    9.1250    9.1570   24.1130 C   0  0  0  0  0  0  0  0  0  0  0  0
    8.8410    7.7420   23.7470 C   0  0  0  0  0  0  0  0  0  0  0  0
    9.4390    8.4140   22.8760 C   0  0  0  0  0  0  0  0  0  0  0  0
    8.2360    9.8880   23.7880 O   0  0  0  0  0  0  0  0  0  0  0  0
    7.9850   10.8980   24.6510 C   0  0  0  0  0  0  0  0  0  0  0  0
    6.8740   10.6440   25.5870 C   0  0  0  0  0  0  0  0  0  0  0  0
    6.5670   11.7770   26.5570 C   0  0  0  0  0  0  0  0  0  0  0  0
    7.3680   12.9450   26.4650 C   0  0  0  0  0  0  0  0  0  0  0  0
    8.4090   13.0750   25.5290 C   0  0  0  0  0  0  0  0  0  0  0  0
    8.7400   12.0830   24.6240 C   0  0  0  0  0  0  0  0  0  0  0  0
    9.1200   15.3470   20.5440 H   0  0  0  0  0  0  0  0  0  0  0  0
    9.1730   15.7740   22.2720 H   0  0  0  0  0  0  0  0  0  0  0  0
   10.1370   16.6820   21.0960 H   0  0  0  0  0  0  0  0  0  0  0  0
   12.4270   14.4340   22.9950 H   0  0  0  0  0  0  0  0  0  0  0  0
   12.6210   15.7330   21.8370 H   0  0  0  0  0  0  0  0  0  0  0  0
   11.4290   15.8830   23.1070 H   0  0  0  0  0  0  0  0  0  0  0  0
   12.3800   13.7760   20.2960 H   0  0  0  0  0  0  0  0  0  0  0  0
   12.1020   15.4810   19.9080 H   0  0  0  0  0  0  0  0  0  0  0  0
   10.9370   14.2560   19.4190 H   0  0  0  0  0  0  0  0  0  0  0  0
   10.3170   10.8140   22.4030 H   0  0  0  0  0  0  0  0  0  0  0  0
   11.5970   11.3940   23.3840 H   0  0  0  0  0  0  0  0  0  0  0  0
   11.2550    9.0860   23.7770 H   0  0  0  0  0  0  0  0  0  0  0  0
   10.8130    9.9470   25.2370 H   0  0  0  0  0  0  0  0  0  0  0  0
    8.5920    7.0730   24.5720 H   0  0  0  0  0  0  0  0  0  0  0  0
    8.0240    7.6020   23.0280 H   0  0  0  0  0  0  0  0  0  0  0  0
    9.7110    7.3340   23.2330 H   0  0  0  0  0  0  0  0  0  0  0  0
   10.2490    7.7060   23.0460 H   0  0  0  0  0  0  0  0  0  0  0  0
    9.7640    9.0920   22.0810 H   0  0  0  0  0  0  0  0  0  0  0  0
    8.5710    7.8660   22.4940 H   0  0  0  0  0  0  0  0  0  0  0  0
    6.3110    9.7130   25.5840 H   0  0  0  0  0  0  0  0  0  0  0  0
    5.7510   11.6260   27.2660 H   0  0  0  0  0  0  0  0  0  0  0  0
    7.1720   13.7720   27.1430 H   0  0  0  0  0  0  0  0  0  0  0  0
    8.9620   14.0110   25.5480 H   0  0  0  0  0  0  0  0  0  0  0  0
  1  2  1  0
  2  3  1  0
  2  4  1  0
  2  5  1  0
  5  6  1  0
  6  7  2  0
  6  8  1  0
  8  9  1  0
  9 10  1  0
 10 11  1  0
 11 12  1  0
 11 13  1  0
 11 14  1  0
 14 15  1  0
 15 16  2  0
 16 17  1  0
 17 18  2  0
 18 19  1  0
 19 20  2  0
 20  8  1  0
 20 15  1  0
  1 21  1  0
  1 22  1  0
  1 23  1  0
  3 24  1  0
  3 25  1  0
  3 26  1  0
  4 27  1  0
  4 28  1  0
  4 29  1  0
  9 30  1  0
  9 31  1  0
 10 32  1  0
 10 33  1  0
 12 34  1  0
 12 35  1  0
 12 36  1  0
 13 37  1  0
 13 38  1  0
 13 39  1  0
 16 40  1  0
 17 41  1  0
 18 42  1  0
 19 43  1  0
A    1
 C1 
A    2
 C2 
A    3
 C3 
A    4
 C4 
A    5
 O1 
A    6
 C5 
A    7
 O2 
A    8
 N1 
A    9
 C6 
A   10
 C7 
A   11
 C8 
A   12
 C9 
A   13
 C10
A   14
 O3 
A   15
 C11
A   16
 C12
A   17
 C13
A   18
 C14
A   19
 C15
A   20
 C16
A   21
 H1 
A   22
 H2 
A   23
 H3 
A   24
 H4 
A   25
 H5 
A   26
 H6 
A   27
 H7 
A   28
 H8 
A   29
 H9 
A   30
 H10
A   31
 H11
A   32
 H12
A   33
 H13
A   34
 H14
A   35
 H15
A   36
 H16
A   37
 H17
A   38
 H18
A   39
 H19
A   40
 H20
A   41
 H21
A   42
 H22
A   43
 H23
M  END
>  <ref_pdb>  (29) 
x0451_0A

>  <ref_mols>  (29) 
x0451_0A,x0554_0A,x0556_0A,x0566_0A,x0310_0A,x0416_0A

>  <original SMILES>  (29) 
CC(C)(C)OC(=O)N1CCC(C)(C)Oc2ccccc21

>  <rationale>  (29) 
info info set:ROCS-BB-0RB;Warhead nanÅ to Cys110:SG; hydroph_interaction:Y89+V124+D109; 

>  <∆∆G>  (29) 
-9.437507

>  <comRMSD>  (29) 
0.649732

>  <ROCS_TanimotoCombo>  (29) 
0.502

>  <ROCS_ShapeTanimoto>  (29) 
0.362

>  <ROCS_ColorTanimoto>  (29) 
0.141

>  <distance>  (29) 
nan

$$$$
EN300_328407
     RDKit          3D

 41 42  0  0  0  0  0  0  0  0999 V2000
   11.9200   14.3370   20.6450 C   0  0  0  0  0  0  0  0  0  0  0  0
   11.4150   14.2960   22.0610 C   0  0  0  0  0  0  0  0  0  0  0  0
   10.8390   15.4740   22.5300 C   0  0  0  0  0  0  0  0  0  0  0  0
   12.5730   13.9990   22.9870 C   0  0  0  0  0  0  0  0  0  0  0  0
   10.5650   13.1610   22.3360 O   0  0  0  0  0  0  0  0  0  0  0  0
   10.3790   12.7650   23.6150 C   0  0  0  0  0  0  0  0  0  0  0  0
   10.8580   13.2900   24.6080 O   0  0  0  0  0  0  0  0  0  0  0  0
    9.5300   11.6910   23.6580 N   0  0  0  0  0  0  0  0  0  0  0  0
    8.4290   11.7100   24.6130 C   0  0  0  0  0  0  0  0  0  0  0  0
    7.9560   12.9680   25.3080 C   0  0  0  0  0  0  0  0  0  0  0  0
    6.7940   12.7610   26.2690 C   0  0  0  0  0  0  0  0  0  0  0  0
    6.2660   11.3310   26.4030 C   0  0  0  0  0  0  0  0  0  0  0  0
    6.8090   10.2490   25.6890 C   0  0  0  0  0  0  0  0  0  0  0  0
    7.8750   10.4630   24.8160 C   0  0  0  0  0  0  0  0  0  0  0  0
    8.5690    9.5640   24.0190 C   0  0  2  0  0  0  0  0  0  0  0  0
    8.6610    8.1980   24.4700 N   0  0  0  0  0  0  0  0  0  0  0  0
    9.8880   10.2420   23.7030 C   0  0  0  0  0  0  0  0  0  0  0  0
   10.5370    9.7060   22.5490 C   0  0  0  0  0  0  0  0  0  0  0  0
   10.6000   10.1270   24.7960 C   0  0  0  0  0  0  0  0  0  0  0  0
   12.5290   13.4820   20.4060 H   0  0  0  0  0  0  0  0  0  0  0  0
   11.0820   14.3400   19.9410 H   0  0  0  0  0  0  0  0  0  0  0  0
   12.5380   15.2290   20.4860 H   0  0  0  0  0  0  0  0  0  0  0  0
   10.7830   15.6410   23.6040 H   0  0  0  0  0  0  0  0  0  0  0  0
   11.4020   16.3270   22.1350 H   0  0  0  0  0  0  0  0  0  0  0  0
    9.8130   15.5600   22.1560 H   0  0  0  0  0  0  0  0  0  0  0  0
   12.9220   12.9670   22.8640 H   0  0  0  0  0  0  0  0  0  0  0  0
   12.3230   14.1640   24.0380 H   0  0  0  0  0  0  0  0  0  0  0  0
   13.3920   14.6540   22.7290 H   0  0  0  0  0  0  0  0  0  0  0  0
    8.4090   13.9530   25.1380 H   0  0  0  0  0  0  0  0  0  0  0  0
    6.3670   13.6010   26.8300 H   0  0  0  0  0  0  0  0  0  0  0  0
    5.4290   11.1420   27.0860 H   0  0  0  0  0  0  0  0  0  0  0  0
    6.3240    9.2930   25.8930 H   0  0  0  0  0  0  0  0  0  0  0  0
    8.0100    9.5090   23.1110 H   0  0  0  0  0  0  0  0  0  0  0  0
    9.0820    7.6320   23.7470 H   0  0  0  0  0  0  0  0  0  0  0  0
    9.2920    8.1470   25.2750 H   0  0  0  0  0  0  0  0  0  0  0  0
   11.2300   10.4390   22.2050 H   0  0  0  0  0  0  0  0  0  0  0  0
   11.1010    8.8160   22.8350 H   0  0  0  0  0  0  0  0  0  0  0  0
    9.9000    9.4030   21.7410 H   0  0  0  0  0  0  0  0  0  0  0  0
   11.2040    9.2110   24.7980 H   0  0  0  0  0  0  0  0  0  0  0  0
    9.9180   10.0720   25.6370 H   0  0  0  0  0  0  0  0  0  0  0  0
   11.2810   10.9710   24.9390 H   0  0  0  0  0  0  0  0  0  0  0  0
  1  2  1  0
  2  3  1  0
  2  4  1  0
  2  5  1  0
  5  6  1  0
  6  7  2  0
  6  8  1  0
  8  9  1  0
  9 10  2  0
 10 11  1  0
 11 12  2  0
 12 13  1  0
 13 14  2  0
 14 15  1  0
 15 16  1  0
 15 17  1  0
 17 18  1  0
 17 19  1  0
 17  8  1  0
 14  9  1  0
  1 20  1  0
  1 21  1  0
  1 22  1  0
  3 23  1  0
  3 24  1  0
  3 25  1  0
  4 26  1  0
  4 27  1  0
  4 28  1  0
 10 29  1  0
 11 30  1  0
 12 31  1  0
 13 32  1  0
 15 33  1  6
 16 34  1  0
 16 35  1  0
 18 36  1  0
 18 37  1  0
 18 38  1  0
 19 39  1  0
 19 40  1  0
 19 41  1  0
A    1
 C1 
A    2
 C2 
A    3
 C3 
A    4
 C4 
A    5
 O1 
A    6
 C5 
A    7
 O2 
A    8
 N1 
A    9
 C6 
A   10
 C7 
A   11
 C8 
A   12
 C9 
A   13
 C10
A   14
 C11
A   15
 C12
A   16
 N2 
A   17
 C13
A   18
 C14
A   19
 C15
A   20
 H1 
A   21
 H2 
A   22
 H3 
A   23
 H4 
A   24
 H5 
A   25
 H6 
A   26
 H7 
A   27
 H8 
A   28
 H9 
A   29
 H10
A   30
 H11
A   31
 H12
A   32
 H13
A   33
 H14
A   34
 H15
A   35
 H16
A   36
 H17
A   37
 H18
A   38
 H19
A   39
 H20
A   40
 H21
A   41
 H22
M  END
>  <ref_pdb>  (30) 
x0451_0A

>  <ref_mols>  (30) 
x0451_0A,x0554_0A,x0556_0A,x0566_0A,x0310_0A,x0416_0A

>  <original SMILES>  (30) 
CC(C)(C)OC(=O)N1c2ccccc2[C@H](N)C1(C)C

>  <rationale>  (30) 
info info set:ROCS-BB-0RB;Warhead nanÅ to Cys110:SG; hydroph_interaction:Y89+A110+V124; 

>  <∆∆G>  (30) 
-9.416779

>  <comRMSD>  (30) 
0.645829

>  <ROCS_TanimotoCombo>  (30) 
0.521

>  <ROCS_ShapeTanimoto>  (30) 
0.351

>  <ROCS_ColorTanimoto>  (30) 
0.17

>  <distance>  (30) 
nan

$$$$
Z780985858
     RDKit          3D

 65 68  0  0  0  0  0  0  0  0999 V2000
    9.5660   15.3620   19.1160 C   0  0  0  0  0  0  0  0  0  0  0  0
    8.6990   15.0030   20.2240 O   0  0  0  0  0  0  0  0  0  0  0  0
    9.4150   14.8380   21.3660 C   0  0  0  0  0  0  0  0  0  0  0  0
   10.4760   15.7180   21.5850 C   0  0  0  0  0  0  0  0  0  0  0  0
   11.0550   15.3630   22.7560 C   0  0  0  0  0  0  0  0  0  0  0  0
   10.7370   14.2830   23.6790 C   0  0  0  0  0  0  0  0  0  0  0  0
   11.5310   14.1590   24.8350 O   0  0  0  0  0  0  0  0  0  0  0  0
   11.3500   15.2770   25.5890 C   0  0  0  0  0  0  0  0  0  0  0  0
    9.7120   13.4130   23.4420 C   0  0  0  0  0  0  0  0  0  0  0  0
    9.3460   12.1980   24.3340 C   0  0  1  0  0  0  0  0  0  0  0  0
    7.9980   11.7880   24.4600 C   0  0  2  0  0  0  0  0  0  0  0  0
    7.3690   11.9200   25.7030 O   0  0  0  0  0  0  0  0  0  0  0  0
    6.3810   12.8320   25.6990 C   0  0  0  0  0  0  0  0  0  0  0  0
    6.5350   14.0460   24.7630 C   0  0  0  0  0  0  0  0  0  0  0  0
    5.3460   14.9340   24.8940 C   0  0  0  0  0  0  0  0  0  0  0  0
    5.9180   15.8810   23.8750 C   0  0  0  0  0  0  0  0  0  0  0  0
    4.1210   14.8070   25.7500 C   0  0  0  0  0  0  0  0  0  0  0  0
    4.1000   13.5530   26.6290 C   0  0  0  0  0  0  0  0  0  0  0  0
    5.2660   12.6000   26.5540 C   0  0  0  0  0  0  0  0  0  0  0  0
    5.2270   11.3690   27.4170 C   0  0  0  0  0  0  0  0  0  0  0  0
    8.4880   10.3700   24.1520 C   0  0  0  0  0  0  0  0  0  0  0  0
    8.1630    9.2200   24.3010 O   0  0  0  0  0  0  0  0  0  0  0  0
    9.5470   10.9250   23.5860 N   0  0  0  0  0  0  0  0  0  0  0  0
   10.7840   10.2250   23.5500 C   0  0  0  0  0  0  0  0  0  0  0  0
   11.8130   11.0970   23.8220 C   0  0  0  0  0  0  0  0  0  0  0  0
   11.9010   12.3030   23.1670 C   0  0  0  0  0  0  0  0  0  0  0  0
   12.9330   13.1640   23.4530 C   0  0  0  0  0  0  0  0  0  0  0  0
   13.9520   12.7860   24.4680 C   0  0  0  0  0  0  0  0  0  0  0  0
   13.8530   11.5890   25.1070 C   0  0  0  0  0  0  0  0  0  0  0  0
   14.8030   11.2090   26.0670 N   0  0  0  0  0  0  0  0  0  0  0  0
   15.4260   12.0960   26.9220 C   0  0  0  0  0  0  0  0  0  0  0  0
   15.1200   11.8480   28.3780 C   0  0  0  0  0  0  0  0  0  0  0  0
   16.1670   12.9930   26.5830 O   0  0  0  0  0  0  0  0  0  0  0  0
   12.7670   10.7500   24.7610 C   0  0  0  0  0  0  0  0  0  0  0  0
    9.0640   13.7720   22.2700 C   0  0  0  0  0  0  0  0  0  0  0  0
    9.7430   16.4410   19.1580 H   0  0  0  0  0  0  0  0  0  0  0  0
   10.5290   14.8460   19.1840 H   0  0  0  0  0  0  0  0  0  0  0  0
    9.1280   15.1240   18.1410 H   0  0  0  0  0  0  0  0  0  0  0  0
   10.7870   16.5340   20.9520 H   0  0  0  0  0  0  0  0  0  0  0  0
   11.8950   15.9720   23.0680 H   0  0  0  0  0  0  0  0  0  0  0  0
   10.4270   15.2320   26.1750 H   0  0  0  0  0  0  0  0  0  0  0  0
   12.1770   15.4410   26.2830 H   0  0  0  0  0  0  0  0  0  0  0  0
   11.3070   16.1360   24.9240 H   0  0  0  0  0  0  0  0  0  0  0  0
    9.9180   12.0830   25.2510 H   0  0  0  0  0  0  0  0  0  0  0  0
    7.3090   12.1290   23.6980 H   0  0  0  0  0  0  0  0  0  0  0  0
    7.3760   14.2520   24.0930 H   0  0  0  0  0  0  0  0  0  0  0  0
    5.2070   16.6950   23.6880 H   0  0  0  0  0  0  0  0  0  0  0  0
    6.8130   16.3610   24.2880 H   0  0  0  0  0  0  0  0  0  0  0  0
    6.1890   15.4670   22.9080 H   0  0  0  0  0  0  0  0  0  0  0  0
    3.2660   15.4880   25.8160 H   0  0  0  0  0  0  0  0  0  0  0  0
    3.2570   13.3610   27.2880 H   0  0  0  0  0  0  0  0  0  0  0  0
    5.6880   10.4580   27.0360 H   0  0  0  0  0  0  0  0  0  0  0  0
    4.1800   11.1290   27.6270 H   0  0  0  0  0  0  0  0  0  0  0  0
    5.7210   11.5670   28.3720 H   0  0  0  0  0  0  0  0  0  0  0  0
   10.9250    9.7550   22.5700 H   0  0  0  0  0  0  0  0  0  0  0  0
   10.7470    9.4460   24.3260 H   0  0  0  0  0  0  0  0  0  0  0  0
   11.1680   12.5950   22.4220 H   0  0  0  0  0  0  0  0  0  0  0  0
   13.0050   14.1180   22.9380 H   0  0  0  0  0  0  0  0  0  0  0  0
   14.7560   13.4740   24.6750 H   0  0  0  0  0  0  0  0  0  0  0  0
   15.4280   10.4880   25.7270 H   0  0  0  0  0  0  0  0  0  0  0  0
   15.5580   12.6490   28.9820 H   0  0  0  0  0  0  0  0  0  0  0  0
   14.0380   11.8370   28.5260 H   0  0  0  0  0  0  0  0  0  0  0  0
   15.5190   10.8830   28.7000 H   0  0  0  0  0  0  0  0  0  0  0  0
   12.6240    9.7900   25.2060 H   0  0  0  0  0  0  0  0  0  0  0  0
    8.2350   13.1510   22.0590 H   0  0  0  0  0  0  0  0  0  0  0  0
  1  2  1  0
  2  3  1  0
  3  4  2  0
  4  5  1  0
  5  6  2  0
  6  7  1  0
  7  8  1  0
  6  9  1  0
  9 10  1  0
 10 11  1  0
 11 12  1  0
 12 13  1  0
 13 14  2  0
 14 15  1  0
 15 16  1  0
 15 17  2  0
 17 18  1  0
 18 19  2  0
 19 20  1  0
 11 21  1  0
 21 22  2  0
 21 23  1  0
 23 24  1  0
 24 25  1  0
 25 26  2  0
 26 27  1  0
 27 28  2  0
 28 29  1  0
 29 30  1  0
 30 31  1  0
 31 32  1  0
 31 33  2  0
 29 34  2  0
  9 35  2  0
 35  3  1  0
 23 10  1  0
 34 25  1  0
 19 13  1  0
  1 36  1  0
  1 37  1  0
  1 38  1  0
  4 39  1  0
  5 40  1  0
  8 41  1  0
  8 42  1  0
  8 43  1  0
 10 44  1  1
 11 45  1  6
 14 46  1  0
 16 47  1  0
 16 48  1  0
 16 49  1  0
 17 50  1  0
 18 51  1  0
 20 52  1  0
 20 53  1  0
 20 54  1  0
 24 55  1  0
 24 56  1  0
 26 57  1  0
 27 58  1  0
 28 59  1  0
 30 60  1  0
 32 61  1  0
 32 62  1  0
 32 63  1  0
 34 64  1  0
 35 65  1  0
A    1
 C1 
A    2
 O1 
A    3
 C2 
A    4
 C3 
A    5
 C4 
A    6
 C5 
A    7
 O2 
A    8
 C6 
A    9
 C7 
A   10
 C8 
A   11
 C9 
A   12
 O3 
A   13
 C10
A   14
 C11
A   15
 C12
A   16
 C13
A   17
 C14
A   18
 C15
A   19
 C16
A   20
 C17
A   21
 C18
A   22
 O4 
A   23
 N1 
A   24
 C19
A   25
 C20
A   26
 C21
A   27
 C22
A   28
 C23
A   29
 C24
A   30
 N2 
A   31
 C25
A   32
 C26
A   33
 O5 
A   34
 C27
A   35
 C28
A   36
 H1 
A   37
 H2 
A   38
 H3 
A   39
 H4 
A   40
 H5 
A   41
 H6 
A   42
 H7 
A   43
 H8 
A   44
 H9 
A   45
 H10
A   46
 H11
A   47
 H12
A   48
 H13
A   49
 H14
A   50
 H15
A   51
 H16
A   52
 H17
A   53
 H18
A   54
 H19
A   55
 H20
A   56
 H21
A   57
 H22
A   58
 H23
A   59
 H24
A   60
 H25
A   61
 H26
A   62
 H27
A   63
 H28
A   64
 H29
A   65
 H30
M  END
>  <ref_pdb>  (31) 
x0451_0A

>  <ref_mols>  (31) 
x0451_0A,x0554_0A,x0556_0A,x0566_0A,x0310_0A,x0416_0A

>  <original SMILES>  (31) 
COc1ccc(OC)c([C@H]2[C@H](Oc3cc(C)ccc3C)C(=O)N2Cc2cccc(NC(C)=O)c2)c1

>  <rationale>  (31) 
info info set:ROCS-cov2;Warhead 5.234937803833013Å to Cys110:SG; hbond:G108; hydroph_interaction:Y89+A110; 

>  <∆∆G>  (31) 
-9.388934

>  <comRMSD>  (31) 
0.794752

>  <ROCS_TanimotoCombo>  (31) 
0.518

>  <ROCS_ShapeTanimoto>  (31) 
0.352

>  <ROCS_ColorTanimoto>  (31) 
0.166

>  <distance>  (31) 
5.234938

$$$$
Z1533306940
     RDKit          3D

 44 46  0  0  0  0  0  0  0  0999 V2000
   10.6420   17.4070   18.1340 C   0  0  0  0  0  0  0  0  0  0  0  0
   11.3510   16.3410   18.8100 C   0  0  0  0  0  0  0  0  0  0  0  0
   11.9310   15.1770   18.1530 C   0  0  0  0  0  0  0  0  0  0  0  0
   12.4610   14.4090   19.2680 C   0  0  0  0  0  0  0  0  0  0  0  0
   12.1820   15.1390   20.4860 C   0  0  0  0  0  0  0  0  0  0  0  0
   12.4350   14.8380   21.7970 C   0  0  0  0  0  0  0  0  0  0  0  0
   11.2590   15.4320   22.6020 C   0  0  0  0  0  0  0  0  0  0  0  0
   10.9720   14.5030   23.7800 C   0  0  0  0  0  0  0  0  0  0  0  0
   10.9050   15.1000   24.9960 O   0  0  0  0  0  0  0  0  0  0  0  0
   10.7620   13.1480   23.5840 N   0  0  0  0  0  0  0  0  0  0  0  0
   11.0930   12.6240   22.4740 C   0  0  0  0  0  0  0  0  0  0  0  0
   10.9230   12.1380   24.6010 C   0  0  0  0  0  0  0  0  0  0  0  0
    9.7200   11.2580   24.6430 C   0  0  0  0  0  0  0  0  0  0  0  0
    9.4620    9.9980   24.1090 C   0  0  0  0  0  0  0  0  0  0  0  0
   10.5170    9.2700   23.2890 C   0  0  0  0  0  0  0  0  0  0  0  0
    8.2110    9.5020   24.3960 N   0  0  0  0  0  0  0  0  0  0  0  0
    7.7210   10.4920   25.1090 C   0  0  0  0  0  0  0  0  0  0  0  0
    6.2240   10.7860   25.9360 S   0  0  0  0  0  0  0  0  0  0  0  0
    6.8300   12.3950   26.3930 C   0  0  0  0  0  0  0  0  0  0  0  0
    6.0350   13.2690   27.1140 C   0  0  0  0  0  0  0  0  0  0  0  0
    8.0780   12.6170   25.9730 C   0  0  0  0  0  0  0  0  0  0  0  0
    8.5670   11.5590   25.2650 N   0  0  0  0  0  0  0  0  0  0  0  0
   11.5250   16.3280   20.2340 O   0  0  0  0  0  0  0  0  0  0  0  0
   11.3010   18.0760   17.6650 H   0  0  0  0  0  0  0  0  0  0  0  0
    9.9940   16.9870   17.3570 H   0  0  0  0  0  0  0  0  0  0  0  0
   10.0210   17.9750   18.8310 H   0  0  0  0  0  0  0  0  0  0  0  0
   11.9080   14.9980   17.0990 H   0  0  0  0  0  0  0  0  0  0  0  0
   12.9760   13.4560   19.3630 H   0  0  0  0  0  0  0  0  0  0  0  0
   13.3170   15.4230   22.0660 H   0  0  0  0  0  0  0  0  0  0  0  0
   12.7080   13.8200   22.0370 H   0  0  0  0  0  0  0  0  0  0  0  0
   10.3840   15.3840   21.9440 H   0  0  0  0  0  0  0  0  0  0  0  0
   11.3240   16.4830   22.8030 H   0  0  0  0  0  0  0  0  0  0  0  0
   12.1770   12.5690   22.3370 H   0  0  0  0  0  0  0  0  0  0  0  0
   10.6550   13.2200   21.6650 H   0  0  0  0  0  0  0  0  0  0  0  0
   10.6900   11.6050   22.4630 H   0  0  0  0  0  0  0  0  0  0  0  0
   11.8110   11.5420   24.3610 H   0  0  0  0  0  0  0  0  0  0  0  0
   11.0850   12.5810   25.5930 H   0  0  0  0  0  0  0  0  0  0  0  0
   10.2700    8.2030   23.2700 H   0  0  0  0  0  0  0  0  0  0  0  0
   10.5890    9.5880   22.2530 H   0  0  0  0  0  0  0  0  0  0  0  0
   11.5070    9.3470   23.7110 H   0  0  0  0  0  0  0  0  0  0  0  0
    6.2960   14.3310   27.0940 H   0  0  0  0  0  0  0  0  0  0  0  0
    4.9980   13.2050   26.7650 H   0  0  0  0  0  0  0  0  0  0  0  0
    6.0310   12.9720   28.1680 H   0  0  0  0  0  0  0  0  0  0  0  0
    8.6700   13.5050   26.1290 H   0  0  0  0  0  0  0  0  0  0  0  0
  1  2  1  0
  2  3  2  0
  3  4  1  0
  4  5  2  0
  5  6  1  0
  6  7  1  0
  7  8  1  0
  8  9  2  0
  8 10  1  0
 10 11  1  0
 10 12  1  0
 12 13  1  0
 13 14  2  0
 14 15  1  0
 14 16  1  0
 16 17  2  0
 17 18  1  0
 18 19  1  0
 19 20  1  0
 19 21  2  0
 21 22  1  0
  5 23  1  0
 23  2  1  0
 22 13  1  0
 22 17  1  0
  1 24  1  0
  1 25  1  0
  1 26  1  0
  3 27  1  0
  4 28  1  0
  6 29  1  0
  6 30  1  0
  7 31  1  0
  7 32  1  0
 11 33  1  0
 11 34  1  0
 11 35  1  0
 12 36  1  0
 12 37  1  0
 15 38  1  0
 15 39  1  0
 15 40  1  0
 20 41  1  0
 20 42  1  0
 20 43  1  0
 21 44  1  0
A    1
 C1 
A    2
 C2 
A    3
 C3 
A    4
 C4 
A    5
 C5 
A    6
 C6 
A    7
 C7 
A    8
 C8 
A    9
 O1 
A   10
 N1 
A   11
 C9 
A   12
 C10
A   13
 C11
A   14
 C12
A   15
 C13
A   16
 N2 
A   17
 C14
A   18
 S1 
A   19
 C15
A   20
 C16
A   21
 C17
A   22
 N3 
A   23
 O2 
A   24
 H1 
A   25
 H2 
A   26
 H3 
A   27
 H4 
A   28
 H5 
A   29
 H6 
A   30
 H7 
A   31
 H8 
A   32
 H9 
A   33
 H10
A   34
 H11
A   35
 H12
A   36
 H13
A   37
 H14
A   38
 H15
A   39
 H16
A   40
 H17
A   41
 H18
A   42
 H19
A   43
 H20
A   44
 H21
M  END
>  <ref_pdb>  (32) 
x0451_0A

>  <ref_mols>  (32) 
x0451_0A,x0554_0A,x0556_0A,x0566_0A,x0310_0A,x0416_0A

>  <original SMILES>  (32) 
Cc1ccc(CCC(=O)N(C)Cc2c(C)nc3sc(C)cn23)o1

>  <rationale>  (32) 
info info set:ROCS-PPI;Warhead nanÅ to Cys110:SG; hbond:S87; hydroph_interaction:Y89+Y90+A110+V124+D39+T126; 

>  <∆∆G>  (32) 
-9.365515

>  <comRMSD>  (32) 
1.554987

>  <ROCS_TanimotoCombo>  (32) 
0.524

>  <ROCS_ShapeTanimoto>  (32) 
0.364

>  <ROCS_ColorTanimoto>  (32) 
0.16

>  <distance>  (32) 
nan

$$$$
EN300_28297461
     RDKit          3D

 39 40  0  0  0  0  0  0  0  0999 V2000
   12.4700   14.3100   22.4810 C   0  0  0  0  0  0  0  0  0  0  0  0
   11.2680   14.6330   21.6410 C   0  0  0  0  0  0  0  0  0  0  0  0
   11.5460   14.5800   20.1350 C   0  0  0  0  0  0  0  0  0  0  0  0
   10.8150   16.0500   21.9630 C   0  0  0  0  0  0  0  0  0  0  0  0
   10.1570   13.8240   22.0870 O   0  0  0  0  0  0  0  0  0  0  0  0
   10.0560   13.5290   23.4180 C   0  0  0  0  0  0  0  0  0  0  0  0
   10.4160   14.2980   24.2960 O   0  0  0  0  0  0  0  0  0  0  0  0
    9.5100   12.2730   23.6040 N   0  0  0  0  0  0  0  0  0  0  0  0
   10.3130   11.1120   23.2930 C   0  0  0  0  0  0  0  0  0  0  0  0
    9.7280    9.8050   23.7490 C   0  0  0  0  0  0  0  0  0  0  0  0
   10.8510    9.4130   24.6140 C   0  0  0  0  0  0  0  0  0  0  0  0
    9.7560    8.7070   22.6950 C   0  0  0  0  0  0  0  0  0  0  0  0
    8.6830    9.6880   24.4080 O   0  0  0  0  0  0  0  0  0  0  0  0
    8.1590   10.7090   24.8790 C   0  0  0  0  0  0  0  0  0  0  0  0
    7.1520   10.4610   25.8110 C   0  0  0  0  0  0  0  0  0  0  0  0
    6.4060   11.6230   26.4890 C   0  0  0  0  0  0  0  0  0  0  0  0
    5.0270   11.4180   27.7550 Br  0  0  0  0  0  0  0  0  0  0  0  0
    6.8880   12.8520   26.0400 C   0  0  0  0  0  0  0  0  0  0  0  0
    7.8810   13.0850   25.1230 N   0  0  0  0  0  0  0  0  0  0  0  0
    8.4970   12.0360   24.5540 C   0  0  0  0  0  0  0  0  0  0  0  0
   12.2680   14.4260   23.5470 H   0  0  0  0  0  0  0  0  0  0  0  0
   13.2810   14.9880   22.2170 H   0  0  0  0  0  0  0  0  0  0  0  0
   12.7670   13.2700   22.3180 H   0  0  0  0  0  0  0  0  0  0  0  0
   11.8620   15.5750   19.7960 H   0  0  0  0  0  0  0  0  0  0  0  0
   12.3490   13.8760   19.8920 H   0  0  0  0  0  0  0  0  0  0  0  0
   10.6650   14.2820   19.5560 H   0  0  0  0  0  0  0  0  0  0  0  0
   11.5860   16.7720   21.6800 H   0  0  0  0  0  0  0  0  0  0  0  0
    9.8930   16.3110   21.4280 H   0  0  0  0  0  0  0  0  0  0  0  0
   10.6270   16.1760   23.0300 H   0  0  0  0  0  0  0  0  0  0  0  0
   11.2750   11.2770   23.7930 H   0  0  0  0  0  0  0  0  0  0  0  0
   10.5370   11.0250   22.2610 H   0  0  0  0  0  0  0  0  0  0  0  0
   11.7460    9.9890   24.3600 H   0  0  0  0  0  0  0  0  0  0  0  0
   11.1010    8.3770   24.5350 H   0  0  0  0  0  0  0  0  0  0  0  0
   10.6010    9.6680   25.6020 H   0  0  0  0  0  0  0  0  0  0  0  0
    8.7820    8.2310   22.5740 H   0  0  0  0  0  0  0  0  0  0  0  0
   10.4870    7.9460   22.9670 H   0  0  0  0  0  0  0  0  0  0  0  0
   10.0390    9.1170   21.7250 H   0  0  0  0  0  0  0  0  0  0  0  0
    6.8850    9.4330   26.0680 H   0  0  0  0  0  0  0  0  0  0  0  0
    6.3880   13.7090   26.4960 H   0  0  0  0  0  0  0  0  0  0  0  0
  1  2  1  0
  2  3  1  0
  2  4  1  0
  2  5  1  0
  5  6  1  0
  6  7  2  0
  6  8  1  0
  8  9  1  0
  9 10  1  0
 10 11  1  0
 10 12  1  0
 10 13  1  0
 13 14  1  0
 14 15  2  0
 15 16  1  0
 16 17  1  0
 16 18  2  0
 18 19  1  0
 19 20  2  0
 20  8  1  0
 20 14  1  0
  1 21  1  0
  1 22  1  0
  1 23  1  0
  3 24  1  0
  3 25  1  0
  3 26  1  0
  4 27  1  0
  4 28  1  0
  4 29  1  0
  9 30  1  0
  9 31  1  0
 11 32  1  0
 11 33  1  0
 11 34  1  0
 12 35  1  0
 12 36  1  0
 12 37  1  0
 15 38  1  0
 18 39  1  0
A    1
 C1 
A    2
 C2 
A    3
 C3 
A    4
 C4 
A    5
 O1 
A    6
 C5 
A    7
 O2 
A    8
 N1 
A    9
 C6 
A   10
 C7 
A   11
 C8 
A   12
 C9 
A   13
 O3 
A   14
 C10
A   15
 C11
A   16
 C12
A   17
BR1 
A   18
 C13
A   19
 N2 
A   20
 C14
A   21
 H1 
A   22
 H2 
A   23
 H3 
A   24
 H4 
A   25
 H5 
A   26
 H6 
A   27
 H7 
A   28
 H8 
A   29
 H9 
A   30
 H10
A   31
 H11
A   32
 H12
A   33
 H13
A   34
 H14
A   35
 H15
A   36
 H16
A   37
 H17
A   38
 H18
A   39
 H19
M  END
>  <ref_pdb>  (33) 
x0451_0A

>  <ref_mols>  (33) 
x0451_0A,x0554_0A,x0556_0A,x0566_0A,x0310_0A,x0416_0A

>  <original SMILES>  (33) 
CC(C)(C)OC(=O)N1CC(C)(C)Oc2cc(Br)cnc21

>  <rationale>  (33) 
info info set:ROCS-BB-0RB;Warhead nanÅ to Cys110:SG; hydroph_interaction:Y89+V124+D109; 

>  <∆∆G>  (33) 
-9.343397

>  <comRMSD>  (33) 
0.424906

>  <ROCS_TanimotoCombo>  (33) 
0.518

>  <ROCS_ShapeTanimoto>  (33) 
0.372

>  <ROCS_ColorTanimoto>  (33) 
0.145

>  <distance>  (33) 
nan

$$$$
Z56786856
     RDKit          3D

 25 25  0  0  0  0  0  0  0  0999 V2000
    6.3430   10.0000   25.9750 C   0  0  0  0  0  0  0  0  0  0  0  0
    7.5340   10.4380   25.1370 C   0  0  0  0  0  0  0  0  0  0  0  0
    7.6390   11.9450   25.2420 C   0  0  0  0  0  0  0  0  0  0  0  0
    8.7010   12.5440   24.5240 C   0  0  0  0  0  0  0  0  0  0  0  0
    9.6260   11.6240   23.7220 C   0  0  0  0  0  0  0  0  0  0  0  0
   10.6840   12.2390   23.0210 N   0  0  0  0  0  0  0  0  0  0  0  0
   11.1220   13.5360   23.2490 C   0  0  0  0  0  0  0  0  0  0  0  0
   10.7860   14.1880   24.2290 O   0  0  0  0  0  0  0  0  0  0  0  0
   12.0570   14.1520   22.2260 C   0  0  0  0  0  0  0  0  0  0  0  0
   11.4020   15.6330   21.4910 Cl  0  0  0  0  0  0  0  0  0  0  0  0
    9.4430   10.2150   23.6780 C   0  0  0  0  0  0  0  0  0  0  0  0
   10.3210    9.3050   22.9020 C   0  0  0  0  0  0  0  0  0  0  0  0
    8.3900    9.6370   24.3940 C   0  0  0  0  0  0  0  0  0  0  0  0
    5.8730   10.8630   26.4570 H   0  0  0  0  0  0  0  0  0  0  0  0
    6.6400    9.3170   26.7500 H   0  0  0  0  0  0  0  0  0  0  0  0
    5.5950    9.5130   25.3730 H   0  0  0  0  0  0  0  0  0  0  0  0
    6.9390   12.5210   25.8360 H   0  0  0  0  0  0  0  0  0  0  0  0
    8.8580   13.6150   24.5410 H   0  0  0  0  0  0  0  0  0  0  0  0
   10.8750   11.9010   22.0710 H   0  0  0  0  0  0  0  0  0  0  0  0
   12.9970   14.4180   22.7130 H   0  0  0  0  0  0  0  0  0  0  0  0
   12.2780   13.4550   21.4140 H   0  0  0  0  0  0  0  0  0  0  0  0
   10.9520    9.8930   22.2390 H   0  0  0  0  0  0  0  0  0  0  0  0
    9.7410    8.6210   22.2710 H   0  0  0  0  0  0  0  0  0  0  0  0
   10.9570    8.7010   23.5540 H   0  0  0  0  0  0  0  0  0  0  0  0
    8.2430    8.5510   24.3710 H   0  0  0  0  0  0  0  0  0  0  0  0
  1  2  1  0
  2  3  2  0
  3  4  1  0
  4  5  2  0
  5  6  1  0
  6  7  1  0
  7  8  2  0
  7  9  1  0
  9 10  1  0
  5 11  1  0
 11 12  1  0
 11 13  2  0
 13  2  1  0
  1 14  1  0
  1 15  1  0
  1 16  1  0
  3 17  1  0
  4 18  1  0
  6 19  1  0
  9 20  1  0
  9 21  1  0
 12 22  1  0
 12 23  1  0
 12 24  1  0
 13 25  1  0
A    1
 C1 
A    2
 C2 
A    3
 C3 
A    4
 C4 
A    5
 C5 
A    6
 N1 
A    7
 C6 
A    8
 O1 
A    9
 C7 
A   10
CL1 
A   11
 C8 
A   12
 C9 
A   13
 C10
A   14
 H1 
A   15
 H2 
A   16
 H3 
A   17
 H4 
A   18
 H5 
A   19
 H6 
A   20
 H7 
A   21
 H8 
A   22
 H9 
A   23
 H10
A   24
 H11
A   25
 H12
M  END
>  <ref_pdb>  (34) 
x0451_0A

>  <ref_mols>  (34) 
x0451_0A,x0554_0A,x0556_0A,x0566_0A,x0310_0A,x0416_0A

>  <original SMILES>  (34) 
Cc1ccc(NC(=O)CCl)c(C)c1

>  <rationale>  (34) 
info info set:ROCS-electro;Warhead 4.342085883535699Å to Cys110:SG; hbond:S125; hydroph_interaction:V124; 

>  <∆∆G>  (34) 
-9.330154

>  <comRMSD>  (34) 
0.399654

>  <ROCS_TanimotoCombo>  (34) 
0.414

>  <ROCS_ShapeTanimoto>  (34) 
0.274

>  <ROCS_ColorTanimoto>  (34) 
0.14

>  <distance>  (34) 
4.342086

$$$$
Z4123799260
     RDKit          3D

 54 56  0  0  0  0  0  0  0  0999 V2000
   15.8680   19.1430   18.9970 C   0  0  0  0  0  0  0  0  0  0  0  0
   14.5940   18.4070   19.3290 C   0  0  0  0  0  0  0  0  0  0  0  0
   14.2740   17.2240   18.6800 C   0  0  0  0  0  0  0  0  0  0  0  0
   14.9920   16.9150   17.7470 O   0  0  0  0  0  0  0  0  0  0  0  0
   13.1620   16.4730   19.1060 N   0  0  0  0  0  0  0  0  0  0  0  0
   12.2900   15.9960   18.0520 C   0  0  0  0  0  0  0  0  0  0  0  0
   11.0010   15.9880   18.5300 C   0  0  0  0  0  0  0  0  0  0  0  0
   10.7560   14.9450   19.6120 C   0  0  0  0  0  0  0  0  0  0  0  0
   11.8050   14.8360   20.5190 C   0  0  2  0  0  0  0  0  0  0  0  0
   11.3460   14.6240   21.9140 C   0  0  0  0  0  0  0  0  0  0  0  0
   10.9600   15.8170   22.5500 O   0  0  0  0  0  0  0  0  0  0  0  0
   11.2110   13.4120   22.5920 N   0  0  0  0  0  0  0  0  0  0  0  0
   10.2580   13.4930   23.7380 C   0  0  0  0  0  0  0  0  0  0  0  0
    9.3020   12.3380   23.5460 C   0  0  1  0  0  0  0  0  0  0  0  0
   10.2080   11.1300   23.4370 C   0  0  0  0  0  0  0  0  0  0  0  0
    9.7690    9.7530   23.8650 C   0  0  0  0  0  0  0  0  0  0  0  0
    9.5610    8.7010   22.7930 C   0  0  0  0  0  0  0  0  0  0  0  0
   11.0620    9.3350   24.4820 C   0  0  0  0  0  0  0  0  0  0  0  0
    8.7200    9.6980   24.8350 O   0  0  0  0  0  0  0  0  0  0  0  0
    8.1210   10.8550   25.2310 C   0  0  0  0  0  0  0  0  0  0  0  0
    7.2160   10.6700   26.2660 C   0  0  0  0  0  0  0  0  0  0  0  0
    6.4230   11.8600   26.8790 C   0  0  0  0  0  0  0  0  0  0  0  0
    6.7230   13.0790   26.2840 C   0  0  0  0  0  0  0  0  0  0  0  0
    7.6430   13.2050   25.2350 C   0  0  0  0  0  0  0  0  0  0  0  0
    8.3450   12.1200   24.6950 C   0  0  0  0  0  0  0  0  0  0  0  0
   12.7850   16.0320   20.4690 C   0  0  0  0  0  0  0  0  0  0  0  0
   16.5560   18.7520   18.2390 H   0  0  0  0  0  0  0  0  0  0  0  0
   16.1440   20.0780   19.4940 H   0  0  0  0  0  0  0  0  0  0  0  0
   13.9240   18.7800   20.0590 H   0  0  0  0  0  0  0  0  0  0  0  0
   12.6340   15.0020   17.8030 H   0  0  0  0  0  0  0  0  0  0  0  0
   12.5130   16.6210   17.1960 H   0  0  0  0  0  0  0  0  0  0  0  0
   10.3210   15.7970   17.6930 H   0  0  0  0  0  0  0  0  0  0  0  0
   10.7480   16.9720   18.9160 H   0  0  0  0  0  0  0  0  0  0  0  0
   10.6280   13.9650   19.1410 H   0  0  0  0  0  0  0  0  0  0  0  0
    9.7940   15.1530   20.0950 H   0  0  0  0  0  0  0  0  0  0  0  0
   12.4100   13.9550   20.2840 H   0  0  0  0  0  0  0  0  0  0  0  0
   11.2040   12.5610   22.0140 H   0  0  0  0  0  0  0  0  0  0  0  0
    9.8360   14.5000   23.6730 H   0  0  0  0  0  0  0  0  0  0  0  0
   10.8810   13.4950   24.6370 H   0  0  0  0  0  0  0  0  0  0  0  0
    8.5470   12.5160   22.8060 H   0  0  0  0  0  0  0  0  0  0  0  0
   11.1500   11.4510   23.8910 H   0  0  0  0  0  0  0  0  0  0  0  0
   10.4680   10.9830   22.4010 H   0  0  0  0  0  0  0  0  0  0  0  0
    8.5180    8.4140   22.6910 H   0  0  0  0  0  0  0  0  0  0  0  0
    9.8970    9.0670   21.8220 H   0  0  0  0  0  0  0  0  0  0  0  0
   10.1280    7.7990   23.0300 H   0  0  0  0  0  0  0  0  0  0  0  0
   11.9060    9.8610   24.0380 H   0  0  0  0  0  0  0  0  0  0  0  0
   11.0760    9.5210   25.5290 H   0  0  0  0  0  0  0  0  0  0  0  0
   11.2040    8.2870   24.3420 H   0  0  0  0  0  0  0  0  0  0  0  0
    7.0590    9.6720   26.6550 H   0  0  0  0  0  0  0  0  0  0  0  0
    5.7090   11.7420   27.6900 H   0  0  0  0  0  0  0  0  0  0  0  0
    6.2190   13.9730   26.6450 H   0  0  0  0  0  0  0  0  0  0  0  0
    7.8000   14.2010   24.8370 H   0  0  0  0  0  0  0  0  0  0  0  0
   13.6780   15.7940   21.0500 H   0  0  0  0  0  0  0  0  0  0  0  0
   12.3240   16.8910   20.9390 H   0  0  0  0  0  0  0  0  0  0  0  0
  1  2  2  0
  2  3  1  0
  3  4  2  0
  3  5  1  0
  5  6  1  0
  6  7  1  0
  7  8  1  0
  8  9  1  0
  9 10  1  0
 10 11  2  0
 10 12  1  0
 12 13  1  0
 13 14  1  0
 14 15  1  0
 15 16  1  0
 16 17  1  0
 16 18  1  0
 16 19  1  0
 19 20  1  0
 20 21  2  0
 21 22  1  0
 22 23  2  0
 23 24  1  0
 24 25  2  0
  9 26  1  0
 26  5  1  0
 25 14  1  0
 25 20  1  0
  1 27  1  0
  1 28  1  0
  2 29  1  0
  6 30  1  0
  6 31  1  0
  7 32  1  0
  7 33  1  0
  8 34  1  0
  8 35  1  0
  9 36  1  6
 12 37  1  0
 13 38  1  0
 13 39  1  0
 14 40  1  6
 15 41  1  0
 15 42  1  0
 17 43  1  0
 17 44  1  0
 17 45  1  0
 18 46  1  0
 18 47  1  0
 18 48  1  0
 21 49  1  0
 22 50  1  0
 23 51  1  0
 24 52  1  0
 26 53  1  0
 26 54  1  0
A    1
 C1 
A    2
 C2 
A    3
 C3 
A    4
 O1 
A    5
 N1 
A    6
 C4 
A    7
 C5 
A    8
 C6 
A    9
 C7 
A   10
 C8 
A   11
 O2 
A   12
 N2 
A   13
 C9 
A   14
 C10
A   15
 C11
A   16
 C12
A   17
 C13
A   18
 C14
A   19
 O3 
A   20
 C15
A   21
 C16
A   22
 C17
A   23
 C18
A   24
 C19
A   25
 C20
A   26
 C21
A   27
 H1 
A   28
 H2 
A   29
 H3 
A   30
 H4 
A   31
 H5 
A   32
 H6 
A   33
 H7 
A   34
 H8 
A   35
 H9 
A   36
 H10
A   37
 H11
A   38
 H12
A   39
 H13
A   40
 H14
A   41
 H15
A   42
 H16
A   43
 H17
A   44
 H18
A   45
 H19
A   46
 H20
A   47
 H21
A   48
 H22
A   49
 H23
A   50
 H24
A   51
 H25
A   52
 H26
A   53
 H27
A   54
 H28
M  END
>  <ref_pdb>  (35) 
x0451_0A

>  <ref_mols>  (35) 
x0451_0A,x0554_0A,x0556_0A,x0566_0A,x0310_0A,x0416_0A

>  <original SMILES>  (35) 
C=CC(=O)N1CCC[C@H](C(=O)NC[C@H]2CC(C)(C)Oc3ccccc32)C1

>  <rationale>  (35) 
info info set:ROCS-cov2;Warhead 8.922611185633947Å to Cys110:SG; hbond:S87+S125+H21; hydroph_interaction:Y89+Y90+A110+V124+D109+H21; 

>  <∆∆G>  (35) 
-9.318193

>  <comRMSD>  (35) 
1.261657

>  <ROCS_TanimotoCombo>  (35) 
0.534

>  <ROCS_ShapeTanimoto>  (35) 
0.363

>  <ROCS_ColorTanimoto>  (35) 
0.171

>  <distance>  (35) 
8.922611

$$$$
EN300_624589
     RDKit          3D

 38 39  0  0  0  0  0  0  0  0999 V2000
   10.8230   10.0750   22.7620 C   0  0  0  0  0  0  0  0  0  0  0  0
    9.7680   10.6510   23.6070 C   0  0  0  0  0  0  0  0  0  0  0  0
    8.7450    9.7890   24.2400 C   0  0  0  0  0  0  0  0  0  0  0  0
    8.7910    8.2880   24.0140 C   0  0  0  0  0  0  0  0  0  0  0  0
    8.6470    7.6540   22.7930 C   0  0  0  0  0  0  0  0  0  0  0  0
    8.4290    6.3440   22.9380 N   0  0  0  0  0  0  0  0  0  0  0  0
    7.9360   10.6290   24.9590 C   0  0  0  0  0  0  0  0  0  0  0  0
    6.7580   10.1620   25.7710 C   0  0  0  0  0  0  0  0  0  0  0  0
    6.1040   11.3400   26.4410 C   0  0  0  0  0  0  0  0  0  0  0  0
    6.5820   12.7670   26.2990 C   0  0  0  0  0  0  0  0  0  0  0  0
    7.6850   13.1420   25.5250 C   0  0  0  0  0  0  0  0  0  0  0  0
    8.3840   11.9610   24.8230 C   0  0  0  0  0  0  0  0  0  0  0  0
    9.5300   11.9850   23.9750 N   0  0  0  0  0  0  0  0  0  0  0  0
   10.2820   13.1540   23.6030 C   0  0  0  0  0  0  0  0  0  0  0  0
   10.7050   13.8920   24.4810 O   0  0  0  0  0  0  0  0  0  0  0  0
   10.4470   13.3520   22.2690 O   0  0  0  0  0  0  0  0  0  0  0  0
   11.3130   14.4360   21.8230 C   0  0  0  0  0  0  0  0  0  0  0  0
   11.7320   14.3440   20.4960 C   0  0  0  0  0  0  0  0  0  0  0  0
   12.5140   14.3180   22.7500 C   0  0  0  0  0  0  0  0  0  0  0  0
   10.6960   15.8010   22.0800 C   0  0  0  0  0  0  0  0  0  0  0  0
   10.4010    9.5970   21.8810 H   0  0  0  0  0  0  0  0  0  0  0  0
   11.4810   10.8960   22.5050 H   0  0  0  0  0  0  0  0  0  0  0  0
   11.3730    9.3310   23.3340 H   0  0  0  0  0  0  0  0  0  0  0  0
    8.2050    5.8650   22.0720 H   0  0  0  0  0  0  0  0  0  0  0  0
    9.2040    5.8450   23.3680 H   0  0  0  0  0  0  0  0  0  0  0  0
    6.4360    9.1390   25.8580 H   0  0  0  0  0  0  0  0  0  0  0  0
    5.2260   11.2350   27.0830 H   0  0  0  0  0  0  0  0  0  0  0  0
    6.0370   13.5480   26.8270 H   0  0  0  0  0  0  0  0  0  0  0  0
    7.9770   14.1830   25.4630 H   0  0  0  0  0  0  0  0  0  0  0  0
   12.2020   15.2700   20.1480 H   0  0  0  0  0  0  0  0  0  0  0  0
   12.4740   13.5660   20.3780 H   0  0  0  0  0  0  0  0  0  0  0  0
   10.8950   14.1290   19.8240 H   0  0  0  0  0  0  0  0  0  0  0  0
   12.9030   13.2980   22.7780 H   0  0  0  0  0  0  0  0  0  0  0  0
   13.3000   15.0040   22.4290 H   0  0  0  0  0  0  0  0  0  0  0  0
   12.2510   14.6110   23.7700 H   0  0  0  0  0  0  0  0  0  0  0  0
   11.3740   16.6150   21.8050 H   0  0  0  0  0  0  0  0  0  0  0  0
    9.7600   15.9420   21.5240 H   0  0  0  0  0  0  0  0  0  0  0  0
   10.4490   15.9290   23.1400 H   0  0  0  0  0  0  0  0  0  0  0  0
  1  2  1  0
  2  3  2  0
  3  4  1  0
  4  5  3  0
  5  6  1  0
  3  7  1  0
  7  8  2  0
  8  9  1  0
  9 10  2  0
 10 11  1  0
 11 12  2  0
 12 13  1  0
 13 14  1  0
 14 15  2  0
 14 16  1  0
 16 17  1  0
 17 18  1  0
 17 19  1  0
 17 20  1  0
 13  2  1  0
 12  7  1  0
  1 21  1  0
  1 22  1  0
  1 23  1  0
  6 24  1  0
  6 25  1  0
  8 26  1  0
  9 27  1  0
 10 28  1  0
 11 29  1  0
 18 30  1  0
 18 31  1  0
 18 32  1  0
 19 33  1  0
 19 34  1  0
 19 35  1  0
 20 36  1  0
 20 37  1  0
 20 38  1  0
A    1
 C1 
A    2
 C2 
A    3
 C3 
A    4
 C4 
A    5
 C5 
A    6
 N1 
A    7
 C6 
A    8
 C7 
A    9
 C8 
A   10
 C9 
A   11
 C10
A   12
 C11
A   13
 N2 
A   14
 C12
A   15
 O1 
A   16
 O2 
A   17
 C13
A   18
 C14
A   19
 C15
A   20
 C16
A   21
 H1 
A   22
 H2 
A   23
 H3 
A   24
 H4 
A   25
 H5 
A   26
 H6 
A   27
 H7 
A   28
 H8 
A   29
 H9 
A   30
 H10
A   31
 H11
A   32
 H12
A   33
 H13
A   34
 H14
A   35
 H15
A   36
 H16
A   37
 H17
A   38
 H18
M  END
>  <ref_pdb>  (36) 
x0451_0A

>  <ref_mols>  (36) 
x0451_0A,x0554_0A,x0556_0A,x0566_0A,x0310_0A,x0416_0A

>  <original SMILES>  (36) 
Cc1c(C#CN)c2ccccc2n1C(=O)OC(C)(C)C

>  <rationale>  (36) 
info info set:ROCS-BB-0RB;Warhead nanÅ to Cys110:SG; hbond:H104; hydroph_interaction:Y89+A110+D109; 

>  <∆∆G>  (36) 
-9.316376

>  <comRMSD>  (36) 
0.524239

>  <ROCS_TanimotoCombo>  (36) 
0.487

>  <ROCS_ShapeTanimoto>  (36) 
0.353

>  <ROCS_ColorTanimoto>  (36) 
0.134

>  <distance>  (36) 
nan

$$$$
EN300_1902152
     RDKit          3D

 47 49  0  0  0  0  0  0  0  0999 V2000
    8.7650    8.2010   23.7770 C   0  0  0  0  0  0  0  0  0  0  0  0
    9.0290    9.5440   23.9020 N   0  0  0  0  0  0  0  0  0  0  0  0
   10.1010   10.1510   23.3810 C   0  0  0  0  0  0  0  0  0  0  0  0
   10.1540   11.4970   23.6300 C   0  0  0  0  0  0  0  0  0  0  0  0
   11.1820   12.3080   23.1900 C   0  0  2  0  0  0  0  0  0  0  0  0
   12.3700   11.8700   23.6770 C   0  0  0  0  0  0  0  0  0  0  0  0
   13.2440   11.9250   24.3850 N   0  0  0  0  0  0  0  0  0  0  0  0
   13.1310   13.1440   24.8720 C   0  0  0  0  0  0  0  0  0  0  0  0
   11.8480   13.7430   24.9760 C   0  0  0  0  0  0  0  0  0  0  0  0
   11.0530   13.5950   23.8420 N   0  0  0  0  0  0  0  0  0  0  0  0
   10.8350   14.7230   23.0460 C   0  0  0  0  0  0  0  0  0  0  0  0
   11.0250   15.8650   23.4500 O   0  0  0  0  0  0  0  0  0  0  0  0
   10.3860   14.4470   21.7660 O   0  0  0  0  0  0  0  0  0  0  0  0
   10.9950   15.2410   20.7450 C   0  0  0  0  0  0  0  0  0  0  0  0
   12.3170   15.4690   21.0890 C   0  0  0  0  0  0  0  0  0  0  0  0
   11.0140   14.4420   19.4430 C   0  0  0  0  0  0  0  0  0  0  0  0
   10.2020   16.5260   20.4800 C   0  0  0  0  0  0  0  0  0  0  0  0
    8.9730   11.7530   24.3920 C   0  0  0  0  0  0  0  0  0  0  0  0
    8.3880   12.8840   24.9750 C   0  0  0  0  0  0  0  0  0  0  0  0
    7.1940   12.7280   25.6690 C   0  0  0  0  0  0  0  0  0  0  0  0
    6.6360   11.4610   25.7570 C   0  0  0  0  0  0  0  0  0  0  0  0
    7.1410   10.3300   25.2170 N   0  0  0  0  0  0  0  0  0  0  0  0
    8.2940   10.5190   24.5530 C   0  0  0  0  0  0  0  0  0  0  0  0
    9.6540    7.7120   23.3740 H   0  0  0  0  0  0  0  0  0  0  0  0
    8.5180    7.7810   24.7530 H   0  0  0  0  0  0  0  0  0  0  0  0
    7.9350    8.0320   23.0920 H   0  0  0  0  0  0  0  0  0  0  0  0
   10.8660    9.6140   22.8070 H   0  0  0  0  0  0  0  0  0  0  0  0
   11.1690   12.6130   22.1650 H   0  0  0  0  0  0  0  0  0  0  0  0
   12.9590   11.9520   22.7570 H   0  0  0  0  0  0  0  0  0  0  0  0
   12.2470   10.7980   23.8000 H   0  0  0  0  0  0  0  0  0  0  0  0
   13.0890   11.2630   25.1420 H   0  0  0  0  0  0  0  0  0  0  0  0
   13.5830   13.1330   25.8720 H   0  0  0  0  0  0  0  0  0  0  0  0
   13.7600   13.7810   24.2480 H   0  0  0  0  0  0  0  0  0  0  0  0
   11.9540   14.8150   25.1580 H   0  0  0  0  0  0  0  0  0  0  0  0
   11.3540   13.3330   25.8600 H   0  0  0  0  0  0  0  0  0  0  0  0
   12.9250   15.5120   20.1780 H   0  0  0  0  0  0  0  0  0  0  0  0
   12.7150   14.6670   21.7190 H   0  0  0  0  0  0  0  0  0  0  0  0
   12.4220   16.3970   21.6370 H   0  0  0  0  0  0  0  0  0  0  0  0
   10.5470   13.4900   19.5690 H   0  0  0  0  0  0  0  0  0  0  0  0
   10.4970   14.9780   18.6380 H   0  0  0  0  0  0  0  0  0  0  0  0
   12.0430   14.2740   19.0950 H   0  0  0  0  0  0  0  0  0  0  0  0
    9.1380   16.4020   20.7030 H   0  0  0  0  0  0  0  0  0  0  0  0
   10.5600   17.3430   21.1120 H   0  0  0  0  0  0  0  0  0  0  0  0
   10.2820   16.8360   19.4320 H   0  0  0  0  0  0  0  0  0  0  0  0
    8.8440   13.8650   24.8940 H   0  0  0  0  0  0  0  0  0  0  0  0
    6.7070   13.5750   26.1360 H   0  0  0  0  0  0  0  0  0  0  0  0
    5.7050   11.3180   26.2970 H   0  0  0  0  0  0  0  0  0  0  0  0
  1  2  1  0
  2  3  1  0
  3  4  2  0
  4  5  1  0
  5  6  1  0
  6  7  1  0
  7  8  1  0
  8  9  1  0
  9 10  1  0
 10 11  1  0
 11 12  2  0
 11 13  1  0
 13 14  1  0
 14 15  1  0
 14 16  1  0
 14 17  1  0
  4 18  1  0
 18 19  2  0
 19 20  1  0
 20 21  2  0
 21 22  1  0
 22 23  2  0
 23  2  1  0
 10  5  1  0
 23 18  1  0
  1 24  1  0
  1 25  1  0
  1 26  1  0
  3 27  1  0
  5 28  1  6
  6 29  1  0
  6 30  1  0
  7 31  1  0
  8 32  1  0
  8 33  1  0
  9 34  1  0
  9 35  1  0
 15 36  1  0
 15 37  1  0
 15 38  1  0
 16 39  1  0
 16 40  1  0
 16 41  1  0
 17 42  1  0
 17 43  1  0
 17 44  1  0
 19 45  1  0
 20 46  1  0
 21 47  1  0
A    1
 C1 
A    2
 N1 
A    3
 C2 
A    4
 C3 
A    5
 C4 
A    6
 C5 
A    7
 N2 
A    8
 C6 
A    9
 C7 
A   10
 N3 
A   11
 C8 
A   12
 O1 
A   13
 O2 
A   14
 C9 
A   15
 C10
A   16
 C11
A   17
 C12
A   18
 C13
A   19
 C14
A   20
 C15
A   21
 C16
A   22
 N4 
A   23
 C17
A   24
 H1 
A   25
 H2 
A   26
 H3 
A   27
 H4 
A   28
 H5 
A   29
 H6 
A   30
 H7 
A   31
 H8 
A   32
 H9 
A   33
 H10
A   34
 H11
A   35
 H12
A   36
 H13
A   37
 H14
A   38
 H15
A   39
 H16
A   40
 H17
A   41
 H18
A   42
 H19
A   43
 H20
A   44
 H21
A   45
 H22
A   46
 H23
A   47
 H24
M  END
>  <ref_pdb>  (37) 
x0451_0A

>  <ref_mols>  (37) 
x0451_0A,x0554_0A,x0556_0A,x0566_0A,x0310_0A,x0416_0A

>  <original SMILES>  (37) 
Cn1cc([C@@H]2CNCCN2C(=O)OC(C)(C)C)c2cccnc21

>  <rationale>  (37) 
info info set:ROCS-BB-1RB;Warhead nanÅ to Cys110:SG; hbond:S87+H21; 

>  <∆∆G>  (37) 
-9.311208

>  <comRMSD>  (37) 
0.435729

>  <ROCS_TanimotoCombo>  (37) 
0.509

>  <ROCS_ShapeTanimoto>  (37) 
0.374

>  <ROCS_ColorTanimoto>  (37) 
0.136

>  <distance>  (37) 
nan

$$$$
Z216420088
     RDKit          3D

 51 54  0  0  0  0  0  0  0  0999 V2000
   12.8260   13.4550   24.0210 C   0  0  0  0  0  0  0  0  0  0  0  0
   12.1170   14.6980   23.9300 O   0  0  0  0  0  0  0  0  0  0  0  0
   11.7470   14.9890   22.6590 C   0  0  0  0  0  0  0  0  0  0  0  0
   12.7750   15.3370   21.6500 C   0  0  0  0  0  0  0  0  0  0  0  0
   12.4950   15.6570   20.1840 C   0  0  0  0  0  0  0  0  0  0  0  0
   11.0430   15.6380   19.7420 C   0  0  0  0  0  0  0  0  0  0  0  0
   10.7600   15.9720   18.2620 C   0  0  0  0  0  0  0  0  0  0  0  0
   10.0990   15.3120   20.7560 C   0  0  0  0  0  0  0  0  0  0  0  0
   10.4220   14.9800   22.2250 C   0  0  0  0  0  0  0  0  0  0  0  0
    9.4780   14.6620   23.1990 N   0  0  0  0  0  0  0  0  0  0  0  0
    9.7140   14.2040   24.4690 C   0  0  0  0  0  0  0  0  0  0  0  0
   10.5580   14.5720   25.2730 O   0  0  0  0  0  0  0  0  0  0  0  0
    8.7830   13.1170   24.8540 C   0  0  0  0  0  0  0  0  0  0  0  0
    9.1820   11.8230   24.2230 C   0  0  0  0  0  0  0  0  0  0  0  0
    8.2690   10.6820   24.5630 C   0  0  0  0  0  0  0  0  0  0  0  0
    8.7210    9.4570   23.9190 C   0  0  0  0  0  0  0  0  0  0  0  0
   10.1650    9.4140   23.7410 C   0  0  0  0  0  0  0  0  0  0  0  0
   10.3330    8.1480   23.1120 C   0  0  0  0  0  0  0  0  0  0  0  0
    8.9800    7.5230   22.9540 C   0  0  0  0  0  0  0  0  0  0  0  0
    8.0290    8.3480   23.4550 O   0  0  0  0  0  0  0  0  0  0  0  0
    7.1800   10.6440   25.3200 N   0  0  0  0  0  0  0  0  0  0  0  0
    6.9010   11.8380   25.8390 C   0  0  0  0  0  0  0  0  0  0  0  0
    7.6530   13.1470   25.6660 C   0  0  0  0  0  0  0  0  0  0  0  0
    6.8950   14.0300   26.4440 C   0  0  0  0  0  0  0  0  0  0  0  0
    5.8030   13.4240   27.0390 N   0  0  0  0  0  0  0  0  0  0  0  0
    5.8540   12.1260   26.6410 N   0  0  0  0  0  0  0  0  0  0  0  0
    4.8450   11.1770   27.0500 C   0  0  0  0  0  0  0  0  0  0  0  0
    5.2890   10.1980   28.0510 C   0  0  0  0  0  0  0  0  0  0  0  0
    3.5220   11.8300   27.4200 C   0  0  0  0  0  0  0  0  0  0  0  0
   12.3980   12.8140   24.7980 H   0  0  0  0  0  0  0  0  0  0  0  0
   12.7750   12.9060   23.0730 H   0  0  0  0  0  0  0  0  0  0  0  0
   13.8720   13.6630   24.2630 H   0  0  0  0  0  0  0  0  0  0  0  0
   13.7710   15.3390   22.0550 H   0  0  0  0  0  0  0  0  0  0  0  0
   13.3180   15.8800   19.5330 H   0  0  0  0  0  0  0  0  0  0  0  0
   10.1010   15.3050   17.7050 H   0  0  0  0  0  0  0  0  0  0  0  0
   10.3580   16.9890   18.1880 H   0  0  0  0  0  0  0  0  0  0  0  0
   11.7200   15.9650   17.7310 H   0  0  0  0  0  0  0  0  0  0  0  0
    9.0230   15.2740   20.5430 H   0  0  0  0  0  0  0  0  0  0  0  0
    8.5610   14.4800   22.7930 H   0  0  0  0  0  0  0  0  0  0  0  0
   10.0620   11.7310   23.5730 H   0  0  0  0  0  0  0  0  0  0  0  0
   10.9280   10.1510   24.0150 H   0  0  0  0  0  0  0  0  0  0  0  0
   11.2470    7.7440   22.8220 H   0  0  0  0  0  0  0  0  0  0  0  0
    8.8400    6.5380   22.4930 H   0  0  0  0  0  0  0  0  0  0  0  0
    7.0520   15.0850   26.6230 H   0  0  0  0  0  0  0  0  0  0  0  0
    4.6840   10.5910   26.1480 H   0  0  0  0  0  0  0  0  0  0  0  0
    5.6300   10.6970   28.9620 H   0  0  0  0  0  0  0  0  0  0  0  0
    6.1060    9.6180   27.6290 H   0  0  0  0  0  0  0  0  0  0  0  0
    4.4940    9.4980   28.3260 H   0  0  0  0  0  0  0  0  0  0  0  0
    3.2180   12.5430   26.6450 H   0  0  0  0  0  0  0  0  0  0  0  0
    2.7300   11.0800   27.5200 H   0  0  0  0  0  0  0  0  0  0  0  0
    3.5880   12.3740   28.3670 H   0  0  0  0  0  0  0  0  0  0  0  0
  1  2  1  0
  2  3  1  0
  3  4  2  0
  4  5  1  0
  5  6  2  0
  6  7  1  0
  6  8  1  0
  8  9  2  0
  9 10  1  0
 10 11  1  0
 11 12  2  0
 11 13  1  0
 13 14  2  0
 14 15  1  0
 15 16  1  0
 16 17  2  0
 17 18  1  0
 18 19  2  0
 19 20  1  0
 15 21  2  0
 21 22  1  0
 22 23  2  0
 23 24  1  0
 24 25  2  0
 25 26  1  0
 26 27  1  0
 27 28  1  0
 27 29  1  0
  9  3  1  0
 23 13  1  0
 20 16  1  0
 26 22  1  0
  1 30  1  0
  1 31  1  0
  1 32  1  0
  4 33  1  0
  5 34  1  0
  7 35  1  0
  7 36  1  0
  7 37  1  0
  8 38  1  0
 10 39  1  0
 14 40  1  0
 17 41  1  0
 18 42  1  0
 19 43  1  0
 24 44  1  0
 27 45  1  0
 28 46  1  0
 28 47  1  0
 28 48  1  0
 29 49  1  0
 29 50  1  0
 29 51  1  0
A    1
 C1 
A    2
 O1 
A    3
 C2 
A    4
 C3 
A    5
 C4 
A    6
 C5 
A    7
 C6 
A    8
 C7 
A    9
 C8 
A   10
 N1 
A   11
 C9 
A   12
 O2 
A   13
 C10
A   14
 C11
A   15
 C12
A   16
 C13
A   17
 C14
A   18
 C15
A   19
 C16
A   20
 O3 
A   21
 N2 
A   22
 C17
A   23
 C18
A   24
 C19
A   25
 N3 
A   26
 N4 
A   27
 C20
A   28
 C21
A   29
 C22
A   30
 H1 
A   31
 H2 
A   32
 H3 
A   33
 H4 
A   34
 H5 
A   35
 H6 
A   36
 H7 
A   37
 H8 
A   38
 H9 
A   39
 H10
A   40
 H11
A   41
 H12
A   42
 H13
A   43
 H14
A   44
 H15
A   45
 H16
A   46
 H17
A   47
 H18
A   48
 H19
A   49
 H20
A   50
 H21
A   51
 H22
M  END
>  <ref_pdb>  (38) 
x0451_0A

>  <ref_mols>  (38) 
x0451_0A,x0554_0A,x0556_0A,x0566_0A,x0310_0A,x0416_0A

>  <original SMILES>  (38) 
COc1ccc(C)cc1NC(=O)c1cc(-c2ccco2)nc2c1cnn2C(C)C

>  <rationale>  (38) 
info info set:ROCS-PPI;Warhead nanÅ to Cys110:SG; hbond:T126; hydroph_interaction:Y89+Y90+V124+D109; 

>  <∆∆G>  (38) 
-9.295542

>  <comRMSD>  (38) 
1.806285

>  <ROCS_TanimotoCombo>  (38) 
0.585

>  <ROCS_ShapeTanimoto>  (38) 
0.382

>  <ROCS_ColorTanimoto>  (38) 
0.203

>  <distance>  (38) 
nan

$$$$
Z3707881750
     RDKit          3D

 47 48  0  0  0  0  0  0  0  0999 V2000
   11.3880   15.7050   18.9940 C   0  0  0  0  0  0  0  0  0  0  0  0
   10.7880   16.1650   20.3300 C   0  0  0  0  0  0  0  0  0  0  0  0
   11.3930   15.5170   21.5670 C   0  0  0  0  0  0  0  0  0  0  0  0
   11.4870   16.1890   22.5820 O   0  0  0  0  0  0  0  0  0  0  0  0
   11.7870   14.2020   21.4590 N   0  0  0  0  0  0  0  0  0  0  0  0
   12.2240   13.4970   22.6480 C   0  0  0  0  0  0  0  0  0  0  0  0
   11.1100   13.2410   23.6050 C   0  0  0  0  0  0  0  0  0  0  0  0
   11.0020   13.8810   24.6490 O   0  0  0  0  0  0  0  0  0  0  0  0
   10.2470   12.2510   23.2250 N   0  0  0  0  0  0  0  0  0  0  0  0
    9.2840   11.8000   24.0690 C   0  0  0  0  0  0  0  0  0  0  0  0
    8.9390   10.5160   24.4670 C   0  0  0  0  0  0  0  0  0  0  0  0
    9.5320    9.3200   24.0540 C   0  0  0  0  0  0  0  0  0  0  0  0
    9.1720    8.5990   22.9450 C   0  0  0  0  0  0  0  0  0  0  0  0
   11.0260    9.4610   24.0180 C   0  0  0  0  0  0  0  0  0  0  0  0
    7.9280   10.5480   25.4110 N   0  0  0  0  0  0  0  0  0  0  0  0
    6.8290    9.7080   25.1930 C   0  0  0  0  0  0  0  0  0  0  0  0
    7.4310   11.8410   25.4710 N   0  0  0  0  0  0  0  0  0  0  0  0
    6.4930   12.0930   26.5010 C   0  0  0  0  0  0  0  0  0  0  0  0
    6.0880   13.3810   26.8310 C   0  0  0  0  0  0  0  0  0  0  0  0
    5.0830   13.6250   27.9440 C   0  0  0  0  0  0  0  0  0  0  0  0
    4.6210   12.4720   28.5790 C   0  0  0  0  0  0  0  0  0  0  0  0
    5.0310   11.1930   28.2370 C   0  0  0  0  0  0  0  0  0  0  0  0
    5.9500   11.0090   27.2160 C   0  0  0  0  0  0  0  0  0  0  0  0
    8.3360   12.6990   24.8430 C   0  0  0  0  0  0  0  0  0  0  0  0
    8.3960   13.9170   24.8800 O   0  0  0  0  0  0  0  0  0  0  0  0
   12.1940   14.9610   18.9740 H   0  0  0  0  0  0  0  0  0  0  0  0
   11.0390   16.1000   18.0340 H   0  0  0  0  0  0  0  0  0  0  0  0
    9.9930   16.8930   20.4460 H   0  0  0  0  0  0  0  0  0  0  0  0
   11.5350   13.6380   20.6520 H   0  0  0  0  0  0  0  0  0  0  0  0
   12.7680   12.6320   22.2820 H   0  0  0  0  0  0  0  0  0  0  0  0
   12.9300   14.1340   23.1910 H   0  0  0  0  0  0  0  0  0  0  0  0
   10.4680   11.7900   22.3260 H   0  0  0  0  0  0  0  0  0  0  0  0
    9.3260    8.6280   24.8660 H   0  0  0  0  0  0  0  0  0  0  0  0
    9.6210    8.9020   21.9980 H   0  0  0  0  0  0  0  0  0  0  0  0
    9.3920    7.5300   23.0270 H   0  0  0  0  0  0  0  0  0  0  0  0
    8.1120    8.6320   22.8340 H   0  0  0  0  0  0  0  0  0  0  0  0
   11.5040    8.9610   24.8450 H   0  0  0  0  0  0  0  0  0  0  0  0
   11.3170   10.5150   24.0560 H   0  0  0  0  0  0  0  0  0  0  0  0
   11.3930    9.0490   23.0910 H   0  0  0  0  0  0  0  0  0  0  0  0
    6.9020    9.3680   24.1920 H   0  0  0  0  0  0  0  0  0  0  0  0
    5.8690   10.2040   25.3450 H   0  0  0  0  0  0  0  0  0  0  0  0
    6.8770    8.8890   25.8770 H   0  0  0  0  0  0  0  0  0  0  0  0
    6.4870   14.2530   26.2960 H   0  0  0  0  0  0  0  0  0  0  0  0
    4.7520   14.6220   28.2210 H   0  0  0  0  0  0  0  0  0  0  0  0
    3.8970   12.6690   29.3780 H   0  0  0  0  0  0  0  0  0  0  0  0
    4.6330   10.3310   28.7690 H   0  0  0  0  0  0  0  0  0  0  0  0
    6.2420    9.9890   26.9850 H   0  0  0  0  0  0  0  0  0  0  0  0
  1  2  2  0
  2  3  1  0
  3  4  2  0
  3  5  1  0
  5  6  1  0
  6  7  1  0
  7  8  2  0
  7  9  1  0
  9 10  1  0
 10 11  2  0
 11 12  1  0
 12 13  1  0
 12 14  1  0
 11 15  1  0
 15 16  1  0
 15 17  1  0
 17 18  1  0
 18 19  2  0
 19 20  1  0
 20 21  2  0
 21 22  1  0
 22 23  2  0
 17 24  1  0
 24 25  2  0
 24 10  1  0
 23 18  1  0
  1 26  1  0
  1 27  1  0
  2 28  1  0
  5 29  1  0
  6 30  1  0
  6 31  1  0
  9 32  1  0
 12 33  1  0
 13 34  1  0
 13 35  1  0
 13 36  1  0
 14 37  1  0
 14 38  1  0
 14 39  1  0
 16 40  1  0
 16 41  1  0
 16 42  1  0
 19 43  1  0
 20 44  1  0
 21 45  1  0
 22 46  1  0
 23 47  1  0
A    1
 C1 
A    2
 C2 
A    3
 C3 
A    4
 O1 
A    5
 N1 
A    6
 C4 
A    7
 C5 
A    8
 O2 
A    9
 N2 
A   10
 C6 
A   11
 C7 
A   12
 C8 
A   13
 C9 
A   14
 C10
A   15
 N3 
A   16
 C11
A   17
 N4 
A   18
 C12
A   19
 C13
A   20
 C14
A   21
 C15
A   22
 C16
A   23
 C17
A   24
 C18
A   25
 O3 
A   26
 H1 
A   27
 H2 
A   28
 H3 
A   29
 H4 
A   30
 H5 
A   31
 H6 
A   32
 H7 
A   33
 H8 
A   34
 H9 
A   35
 H10
A   36
 H11
A   37
 H12
A   38
 H13
A   39
 H14
A   40
 H15
A   41
 H16
A   42
 H17
A   43
 H18
A   44
 H19
A   45
 H20
A   46
 H21
A   47
 H22
M  END
>  <ref_pdb>  (39) 
x0451_0A

>  <ref_mols>  (39) 
x0451_0A,x0554_0A,x0556_0A,x0566_0A,x0310_0A,x0416_0A

>  <original SMILES>  (39) 
C=CC(=O)NCC(=O)Nc1c(C(C)C)n(C)n(-c2ccccc2)c1=O

>  <rationale>  (39) 
info info set:ROCS-cov2;Warhead 7.520158608034806Å to Cys110:SG; hbond:S87+S125; hydroph_interaction:Y90+A110+V124; 

>  <∆∆G>  (39) 
-9.262839

>  <comRMSD>  (39) 
0.659007

>  <ROCS_TanimotoCombo>  (39) 
0.543

>  <ROCS_ShapeTanimoto>  (39) 
0.385

>  <ROCS_ColorTanimoto>  (39) 
0.158

>  <distance>  (39) 
7.520159

$$$$
EN300_28292476
     RDKit          3D

 41 42  0  0  0  0  0  0  0  0999 V2000
   10.0290    8.7140   24.0490 C   0  0  0  0  0  0  0  0  0  0  0  0
    9.4720    9.9690   23.5610 C   0  0  2  0  0  0  0  0  0  0  0  0
   10.3410   11.0610   23.5960 C   0  0  0  0  0  0  0  0  0  0  0  0
    9.6020   12.2060   23.7010 N   0  0  0  0  0  0  0  0  0  0  0  0
   10.1540   13.5200   23.4670 C   0  0  0  0  0  0  0  0  0  0  0  0
   10.2760   14.3940   24.3170 O   0  0  0  0  0  0  0  0  0  0  0  0
   10.5190   13.6600   22.1640 O   0  0  0  0  0  0  0  0  0  0  0  0
   11.5110   14.6430   21.8080 C   0  0  0  0  0  0  0  0  0  0  0  0
   12.5080   14.4130   22.8680 C   0  0  0  0  0  0  0  0  0  0  0  0
   11.8460   14.5900   20.3510 C   0  0  0  0  0  0  0  0  0  0  0  0
   10.9220   16.0050   22.1000 C   0  0  0  0  0  0  0  0  0  0  0  0
    8.5380   11.8850   24.5270 C   0  0  0  0  0  0  0  0  0  0  0  0
    7.6260   12.7790   25.3470 C   0  0  0  0  0  0  0  0  0  0  0  0
    6.5850   11.9920   26.1200 C   0  0  0  0  0  0  0  0  0  0  0  0
    5.4450   12.9160   27.1100 S   0  0  0  0  0  6  0  0  0  0  0  0
    6.1640   12.8190   28.6290 N   0  0  0  0  0  0  0  0  0  0  0  0
    5.5440   14.3120   26.7340 O   0  0  0  0  0  0  0  0  0  0  0  0
    4.1780   12.2130   27.1440 O   0  0  0  0  0  0  0  0  0  0  0  0
    6.5110   10.6030   26.0670 C   0  0  0  0  0  0  0  0  0  0  0  0
    7.4680    9.8390   25.2260 C   0  0  0  0  0  0  0  0  0  0  0  0
    8.4220   10.5130   24.4950 C   0  0  0  0  0  0  0  0  0  0  0  0
    9.2610    8.1460   24.5810 H   0  0  0  0  0  0  0  0  0  0  0  0
   10.8640    8.9030   24.7290 H   0  0  0  0  0  0  0  0  0  0  0  0
   10.3840    8.1170   23.2030 H   0  0  0  0  0  0  0  0  0  0  0  0
    8.9160    9.6180   22.7340 H   0  0  0  0  0  0  0  0  0  0  0  0
   11.1660   11.2290   24.2670 H   0  0  0  0  0  0  0  0  0  0  0  0
   10.8150   11.1040   22.6110 H   0  0  0  0  0  0  0  0  0  0  0  0
   12.1140   14.7100   23.8430 H   0  0  0  0  0  0  0  0  0  0  0  0
   12.7400   13.3420   22.9020 H   0  0  0  0  0  0  0  0  0  0  0  0
   13.4050   14.9930   22.6960 H   0  0  0  0  0  0  0  0  0  0  0  0
   10.9320   14.6270   19.7500 H   0  0  0  0  0  0  0  0  0  0  0  0
   12.4010   13.6910   20.0940 H   0  0  0  0  0  0  0  0  0  0  0  0
   12.4780   15.4380   20.0680 H   0  0  0  0  0  0  0  0  0  0  0  0
   10.8730   16.1670   23.1800 H   0  0  0  0  0  0  0  0  0  0  0  0
    9.9040   16.1100   21.7140 H   0  0  0  0  0  0  0  0  0  0  0  0
   11.5290   16.7950   21.6530 H   0  0  0  0  0  0  0  0  0  0  0  0
    7.6950   13.8670   25.3860 H   0  0  0  0  0  0  0  0  0  0  0  0
    5.5590   13.1340   29.3870 H   0  0  0  0  0  0  0  0  0  0  0  0
    7.0520   13.3230   28.6050 H   0  0  0  0  0  0  0  0  0  0  0  0
    5.7560   10.0640   26.6370 H   0  0  0  0  0  0  0  0  0  0  0  0
    7.4150    8.7720   25.1870 H   0  0  0  0  0  0  0  0  0  0  0  0
  1  2  1  0
  2  3  1  0
  3  4  1  0
  4  5  1  0
  5  6  2  0
  5  7  1  0
  7  8  1  0
  8  9  1  0
  8 10  1  0
  8 11  1  0
  4 12  1  0
 12 13  2  0
 13 14  1  0
 14 15  1  0
 15 16  1  0
 15 17  2  0
 15 18  2  0
 14 19  2  0
 19 20  1  0
 20 21  2  0
 21  2  1  0
 21 12  1  0
  1 22  1  0
  1 23  1  0
  1 24  1  0
  2 25  1  6
  3 26  1  0
  3 27  1  0
  9 28  1  0
  9 29  1  0
  9 30  1  0
 10 31  1  0
 10 32  1  0
 10 33  1  0
 11 34  1  0
 11 35  1  0
 11 36  1  0
 13 37  1  0
 16 38  1  0
 16 39  1  0
 19 40  1  0
 20 41  1  0
A    1
 C1 
A    2
 C2 
A    3
 C3 
A    4
 N1 
A    5
 C4 
A    6
 O1 
A    7
 O2 
A    8
 C5 
A    9
 C6 
A   10
 C7 
A   11
 C8 
A   12
 C9 
A   13
 C10
A   14
 C11
A   15
 S1 
A   16
 N2 
A   17
 O3 
A   18
 O4 
A   19
 C12
A   20
 C13
A   21
 C14
A   22
 H1 
A   23
 H2 
A   24
 H3 
A   25
 H4 
A   26
 H5 
A   27
 H6 
A   28
 H7 
A   29
 H8 
A   30
 H9 
A   31
 H10
A   32
 H11
A   33
 H12
A   34
 H13
A   35
 H14
A   36
 H15
A   37
 H16
A   38
 H17
A   39
 H18
A   40
 H19
A   41
 H20
M  END
>  <ref_pdb>  (40) 
x0451_0A

>  <ref_mols>  (40) 
x0451_0A,x0554_0A,x0556_0A,x0566_0A,x0310_0A,x0416_0A

>  <original SMILES>  (40) 
C[C@@H]1CN(C(=O)OC(C)(C)C)c2cc(S(N)(=O)=O)ccc21

>  <rationale>  (40) 
info info set:ROCS-BB-1RB;Warhead nanÅ to Cys110:SG; hydroph_interaction:Y89+D109; 

>  <∆∆G>  (40) 
-9.220914

>  <comRMSD>  (40) 
0.357561

>  <ROCS_TanimotoCombo>  (40) 
0.533

>  <ROCS_ShapeTanimoto>  (40) 
0.368

>  <ROCS_ColorTanimoto>  (40) 
0.164

>  <distance>  (40) 
nan

$$$$
EN300_43356278
     RDKit          3D

 35 36  0  0  0  0  0  0  0  0999 V2000
   10.3140    8.9990   23.4440 C   0  0  0  0  0  0  0  0  0  0  0  0
    9.4100   10.1450   23.9450 C   0  0  0  0  0  0  0  0  0  0  0  0
    8.1480    9.7080   24.4940 N   0  0  0  0  0  0  0  0  0  0  0  0
    7.2620   10.6540   24.9650 N   0  0  0  0  0  0  0  0  0  0  0  0
    7.5750   11.9600   24.9010 C   0  0  0  0  0  0  0  0  0  0  0  0
    6.7220   12.7280   25.3250 O   0  0  0  0  0  0  0  0  0  0  0  0
    8.7720   12.4060   24.3900 C   0  0  0  0  0  0  0  0  0  0  0  0
    9.7060   11.4800   23.9120 C   0  0  0  0  0  0  0  0  0  0  0  0
   10.8960   12.2010   23.4410 C   0  0  0  0  0  0  0  0  0  0  0  0
   10.4130   13.5670   23.3590 N   0  0  0  0  0  0  0  0  0  0  0  0
   10.9230   14.5600   22.5970 C   0  0  0  0  0  0  0  0  0  0  0  0
   11.1480   15.6940   23.0030 O   0  0  0  0  0  0  0  0  0  0  0  0
   11.1470   14.1660   21.3320 O   0  0  0  0  0  0  0  0  0  0  0  0
   11.6730   15.1310   20.4120 C   0  0  0  0  0  0  0  0  0  0  0  0
   12.2590   14.5950   19.2830 C   0  0  0  0  0  0  0  0  0  0  0  0
   10.6120   16.1670   20.0530 C   0  0  0  0  0  0  0  0  0  0  0  0
   12.7020   15.7760   21.3170 C   0  0  0  0  0  0  0  0  0  0  0  0
    9.2820   13.7880   24.2430 C   0  0  0  0  0  0  0  0  0  0  0  0
    9.7250    8.1000   23.2340 H   0  0  0  0  0  0  0  0  0  0  0  0
   10.8320    9.2860   22.5210 H   0  0  0  0  0  0  0  0  0  0  0  0
   11.0600    8.7550   24.2010 H   0  0  0  0  0  0  0  0  0  0  0  0
    5.9920   12.4920   24.7000 H   0  0  0  0  0  0  0  0  0  0  0  0
   11.7180   12.1480   24.1470 H   0  0  0  0  0  0  0  0  0  0  0  0
   11.2450   11.8650   22.4810 H   0  0  0  0  0  0  0  0  0  0  0  0
   11.7220   14.6830   18.3420 H   0  0  0  0  0  0  0  0  0  0  0  0
   12.4630   13.5380   19.4280 H   0  0  0  0  0  0  0  0  0  0  0  0
   13.2110   15.0860   19.1090 H   0  0  0  0  0  0  0  0  0  0  0  0
   10.7840   16.5950   19.0590 H   0  0  0  0  0  0  0  0  0  0  0  0
    9.6030   15.7330   20.0270 H   0  0  0  0  0  0  0  0  0  0  0  0
   10.5880   16.9850   20.7850 H   0  0  0  0  0  0  0  0  0  0  0  0
   13.0720   15.0880   22.0580 H   0  0  0  0  0  0  0  0  0  0  0  0
   13.5450   16.1830   20.7690 H   0  0  0  0  0  0  0  0  0  0  0  0
   12.2110   16.5950   21.8300 H   0  0  0  0  0  0  0  0  0  0  0  0
    8.5700   14.4480   23.7620 H   0  0  0  0  0  0  0  0  0  0  0  0
    9.6360   14.2080   25.1870 H   0  0  0  0  0  0  0  0  0  0  0  0
  1  2  1  0
  2  3  2  0
  3  4  1  0
  4  5  2  0
  5  6  1  0
  5  7  1  0
  7  8  2  0
  8  9  1  0
  9 10  1  0
 10 11  1  0
 11 12  2  0
 11 13  1  0
 13 14  1  0
 14 15  1  0
 14 16  1  0
 14 17  1  0
 10 18  1  0
  8  2  1  0
 18  7  1  0
  1 19  1  0
  1 20  1  0
  1 21  1  0
  6 22  1  0
  9 23  1  0
  9 24  1  0
 15 25  1  0
 15 26  1  0
 15 27  1  0
 16 28  1  0
 16 29  1  0
 16 30  1  0
 17 31  1  0
 17 32  1  0
 17 33  1  0
 18 34  1  0
 18 35  1  0
A    1
 C1 
A    2
 C2 
A    3
 N1 
A    4
 N2 
A    5
 C3 
A    6
 O1 
A    7
 C4 
A    8
 C5 
A    9
 C6 
A   10
 N3 
A   11
 C7 
A   12
 O2 
A   13
 O3 
A   14
 C8 
A   15
 C9 
A   16
 C10
A   17
 C11
A   18
 C12
A   19
 H1 
A   20
 H2 
A   21
 H3 
A   22
 H4 
A   23
 H5 
A   24
 H6 
A   25
 H7 
A   26
 H8 
A   27
 H9 
A   28
 H10
A   29
 H11
A   30
 H12
A   31
 H13
A   32
 H14
A   33
 H15
A   34
 H16
A   35
 H17
M  END
>  <ref_pdb>  (41) 
x0451_0A

>  <ref_mols>  (41) 
x0451_0A,x0554_0A,x0556_0A,x0566_0A,x0310_0A,x0416_0A

>  <original SMILES>  (41) 
Cc1nnc(O)c2c1CN(C(=O)OC(C)(C)C)C2

>  <rationale>  (41) 
info info set:ROCS-BB-0RB;Warhead nanÅ to Cys110:SG; hbond:S87; hydroph_interaction:Y89+Y90+V124+D109; 

>  <∆∆G>  (41) 
-9.210321

>  <comRMSD>  (41) 
0.504834

>  <ROCS_TanimotoCombo>  (41) 
0.487

>  <ROCS_ShapeTanimoto>  (41) 
0.332

>  <ROCS_ColorTanimoto>  (41) 
0.155

>  <distance>  (41) 
nan

$$$$
Z123605534
     RDKit          3D

 30 31  0  0  0  0  0  0  0  0999 V2000
   11.2830   16.3090   17.9950 C   0  0  0  0  0  0  0  0  0  0  0  0
   11.3240   15.8080   19.2900 C   0  0  0  0  0  0  0  0  0  0  0  0
   12.1790   14.7580   19.6110 C   0  0  0  0  0  0  0  0  0  0  0  0
   12.1920   14.2470   20.9020 C   0  0  0  0  0  0  0  0  0  0  0  0
   11.3900   14.7540   21.8840 C   0  0  0  0  0  0  0  0  0  0  0  0
   11.4950   13.9840   23.4740 S   0  0  0  0  0  6  0  0  0  0  0  0
   12.8460   13.9140   23.9660 O   0  0  0  0  0  0  0  0  0  0  0  0
   10.4130   14.4760   24.3020 O   0  0  0  0  0  0  0  0  0  0  0  0
   11.0650   12.4710   22.9930 N   0  0  0  0  0  0  0  0  0  0  0  0
   10.0790   11.6100   23.5580 C   0  0  0  0  0  0  0  0  0  0  0  0
    9.0090   11.9290   24.4340 C   0  0  0  0  0  0  0  0  0  0  0  0
    8.3510   10.6000   24.6400 C   0  0  0  0  0  0  0  0  0  0  0  0
    9.1140    9.7410   23.8780 N   0  0  0  0  0  0  0  0  0  0  0  0
    8.9720    8.3300   23.6800 C   0  0  0  0  0  0  0  0  0  0  0  0
   10.1140   10.3250   23.2490 N   0  0  0  0  0  0  0  0  0  0  0  0
   10.5390   15.8080   21.5920 C   0  0  0  0  0  0  0  0  0  0  0  0
   10.5090   16.3300   20.2990 C   0  0  0  0  0  0  0  0  0  0  0  0
   12.2170   16.3470   17.4210 H   0  0  0  0  0  0  0  0  0  0  0  0
   10.5610   15.7220   17.4120 H   0  0  0  0  0  0  0  0  0  0  0  0
   10.8910   17.3320   18.0030 H   0  0  0  0  0  0  0  0  0  0  0  0
   12.8230   14.3330   18.8560 H   0  0  0  0  0  0  0  0  0  0  0  0
   12.8310   13.4250   21.1580 H   0  0  0  0  0  0  0  0  0  0  0  0
   11.3800   12.2520   22.0440 H   0  0  0  0  0  0  0  0  0  0  0  0
    8.6130   12.8280   24.9250 H   0  0  0  0  0  0  0  0  0  0  0  0
    7.4660   10.4960   25.2810 H   0  0  0  0  0  0  0  0  0  0  0  0
    8.2180    8.1560   22.9050 H   0  0  0  0  0  0  0  0  0  0  0  0
    8.7590    7.7680   24.5930 H   0  0  0  0  0  0  0  0  0  0  0  0
    9.9380    7.9530   23.3240 H   0  0  0  0  0  0  0  0  0  0  0  0
    9.8680   16.2670   22.3190 H   0  0  0  0  0  0  0  0  0  0  0  0
    9.8100   17.1560   20.1370 H   0  0  0  0  0  0  0  0  0  0  0  0
  1  2  1  0
  2  3  2  0
  3  4  1  0
  4  5  2  0
  5  6  1  0
  6  7  2  0
  6  8  2  0
  6  9  1  0
  9 10  1  0
 10 11  1  0
 11 12  2  0
 12 13  1  0
 13 14  1  0
 13 15  1  0
  5 16  1  0
 16 17  2  0
 17  2  1  0
 15 10  2  0
  1 18  1  0
  1 19  1  0
  1 20  1  0
  3 21  1  0
  4 22  1  0
  9 23  1  0
 11 24  1  0
 12 25  1  0
 14 26  1  0
 14 27  1  0
 14 28  1  0
 16 29  1  0
 17 30  1  0
A    1
 C1 
A    2
 C2 
A    3
 C3 
A    4
 C4 
A    5
 C5 
A    6
 S1 
A    7
 O1 
A    8
 O2 
A    9
 N1 
A   10
 C6 
A   11
 C7 
A   12
 C8 
A   13
 N2 
A   14
 C9 
A   15
 N3 
A   16
 C10
A   17
 C11
A   18
 H1 
A   19
 H2 
A   20
 H3 
A   21
 H4 
A   22
 H5 
A   23
 H6 
A   24
 H7 
A   25
 H8 
A   26
 H9 
A   27
 H10
A   28
 H11
A   29
 H12
A   30
 H13
M  END
>  <ref_pdb>  (42) 
x0451_0A

>  <ref_mols>  (42) 
x0451_0A,x0554_0A,x0556_0A,x0566_0A,x0310_0A,x0416_0A

>  <original SMILES>  (42) 
Cc1ccc(S(=O)(=O)Nc2ccn(C)n2)cc1

>  <rationale>  (42) 
info info set:ROCS-shape_Q1;Warhead nanÅ to Cys110:SG; hbond:S125; hydroph_interaction:Y90; pistack:H21; 

>  <∆∆G>  (42) 
-9.192906

>  <comRMSD>  (42) 
0.781172

>  <ROCS_TanimotoCombo>  (42) 
0.396

>  <ROCS_ShapeTanimoto>  (42) 
0.279

>  <ROCS_ColorTanimoto>  (42) 
0.117

>  <distance>  (42) 
nan

$$$$
EN300_96500
     RDKit          3D

 41 42  0  0  0  0  0  0  0  0999 V2000
   10.1570    8.6600   22.7810 C   0  0  0  0  0  0  0  0  0  0  0  0
   10.2480    9.6500   23.8570 C   0  0  0  0  0  0  0  0  0  0  0  0
   11.3380    9.7090   24.6730 C   0  0  0  0  0  0  0  0  0  0  0  0
   10.4720   10.9660   23.1810 C   0  0  0  0  0  0  0  0  0  0  0  0
    9.7450   12.1170   23.6540 N   0  0  0  0  0  0  0  0  0  0  0  0
   10.0930   13.4700   23.2990 C   0  0  0  0  0  0  0  0  0  0  0  0
   10.2860   14.2810   24.2030 O   0  0  0  0  0  0  0  0  0  0  0  0
   10.2190   13.8510   22.1390 O   0  0  0  0  0  0  0  0  0  0  0  0
   11.3690   14.6380   21.7560 C   0  0  0  0  0  0  0  0  0  0  0  0
   11.6950   14.6130   20.2460 C   0  0  0  0  0  0  0  0  0  0  0  0
   10.9400   16.0450   22.1130 C   0  0  0  0  0  0  0  0  0  0  0  0
   12.4340   14.3150   22.5410 C   0  0  0  0  0  0  0  0  0  0  0  0
    8.6290   11.8660   24.5540 C   0  0  0  0  0  0  0  0  0  0  0  0
    7.7580   13.0070   25.0450 C   0  0  0  0  0  0  0  0  0  0  0  0
    6.6890   12.7570   25.9060 C   0  0  0  0  0  0  0  0  0  0  0  0
    6.4160   11.4630   26.3160 C   0  0  0  0  0  0  0  0  0  0  0  0
    7.2200   10.4220   25.8630 C   0  0  0  0  0  0  0  0  0  0  0  0
    8.3040   10.6000   25.0040 C   0  0  0  0  0  0  0  0  0  0  0  0
    9.0250    9.4740   24.6340 N   0  0  0  0  0  0  0  0  0  0  0  0
   10.8140    7.8250   22.9950 H   0  0  0  0  0  0  0  0  0  0  0  0
   10.4560    9.1100   21.8360 H   0  0  0  0  0  0  0  0  0  0  0  0
    9.1320    8.2840   22.7000 H   0  0  0  0  0  0  0  0  0  0  0  0
   11.5230    8.9440   25.3710 H   0  0  0  0  0  0  0  0  0  0  0  0
   12.2350    9.7840   24.0810 H   0  0  0  0  0  0  0  0  0  0  0  0
   11.2830   10.6400   25.2320 H   0  0  0  0  0  0  0  0  0  0  0  0
   10.3250   10.7790   22.1670 H   0  0  0  0  0  0  0  0  0  0  0  0
   11.5360   11.2190   23.2480 H   0  0  0  0  0  0  0  0  0  0  0  0
   12.3600   13.7850   19.9900 H   0  0  0  0  0  0  0  0  0  0  0  0
   10.7780   14.5150   19.6500 H   0  0  0  0  0  0  0  0  0  0  0  0
   12.1920   15.5390   19.9160 H   0  0  0  0  0  0  0  0  0  0  0  0
    9.9300   16.2480   21.7360 H   0  0  0  0  0  0  0  0  0  0  0  0
   10.9540   16.1720   23.1990 H   0  0  0  0  0  0  0  0  0  0  0  0
   11.6200   16.7810   21.6830 H   0  0  0  0  0  0  0  0  0  0  0  0
   13.2800   14.9540   22.2980 H   0  0  0  0  0  0  0  0  0  0  0  0
   12.7400   13.2750   22.3990 H   0  0  0  0  0  0  0  0  0  0  0  0
   12.1950   14.4270   23.6020 H   0  0  0  0  0  0  0  0  0  0  0  0
    7.9500   14.0360   24.7350 H   0  0  0  0  0  0  0  0  0  0  0  0
    6.0580   13.5780   26.2620 H   0  0  0  0  0  0  0  0  0  0  0  0
    5.5630   11.3360   26.9900 H   0  0  0  0  0  0  0  0  0  0  0  0
    6.9800    9.4200   26.2050 H   0  0  0  0  0  0  0  0  0  0  0  0
    9.1240    8.8070   25.4030 H   0  0  0  0  0  0  0  0  0  0  0  0
  1  2  1  0
  2  3  1  0
  2  4  1  0
  4  5  1  0
  5  6  1  0
  6  7  2  0
  6  8  1  0
  8  9  1  0
  9 10  1  0
  9 11  1  0
  9 12  1  0
  5 13  1  0
 13 14  2  0
 14 15  1  0
 15 16  2  0
 16 17  1  0
 17 18  2  0
 18 19  1  0
 19  2  1  0
 18 13  1  0
  1 20  1  0
  1 21  1  0
  1 22  1  0
  3 23  1  0
  3 24  1  0
  3 25  1  0
  4 26  1  0
  4 27  1  0
 10 28  1  0
 10 29  1  0
 10 30  1  0
 11 31  1  0
 11 32  1  0
 11 33  1  0
 12 34  1  0
 12 35  1  0
 12 36  1  0
 14 37  1  0
 15 38  1  0
 16 39  1  0
 17 40  1  0
 19 41  1  0
A    1
 C1 
A    2
 C2 
A    3
 C3 
A    4
 C4 
A    5
 N1 
A    6
 C5 
A    7
 O1 
A    8
 O2 
A    9
 C6 
A   10
 C7 
A   11
 C8 
A   12
 C9 
A   13
 C10
A   14
 C11
A   15
 C12
A   16
 C13
A   17
 C14
A   18
 C15
A   19
 N2 
A   20
 H1 
A   21
 H2 
A   22
 H3 
A   23
 H4 
A   24
 H5 
A   25
 H6 
A   26
 H7 
A   27
 H8 
A   28
 H9 
A   29
 H10
A   30
 H11
A   31
 H12
A   32
 H13
A   33
 H14
A   34
 H15
A   35
 H16
A   36
 H17
A   37
 H18
A   38
 H19
A   39
 H20
A   40
 H21
A   41
 H22
M  END
>  <ref_pdb>  (43) 
x0451_0A

>  <ref_mols>  (43) 
x0451_0A,x0554_0A,x0556_0A,x0566_0A,x0310_0A,x0416_0A

>  <original SMILES>  (43) 
CC1(C)CN(C(=O)OC(C)(C)C)c2ccccc2N1

>  <rationale>  (43) 
info info set:ROCS-BB-0RB;Warhead nanÅ to Cys110:SG; hbond:S105; hydroph_interaction:Y89+A110+V124+D109; 

>  <∆∆G>  (43) 
-9.169151

>  <comRMSD>  (43) 
0.437499

>  <ROCS_TanimotoCombo>  (43) 
0.503

>  <ROCS_ShapeTanimoto>  (43) 
0.356

>  <ROCS_ColorTanimoto>  (43) 
0.147

>  <distance>  (43) 
nan

$$$$
EN300_28262925
     RDKit          3D

 36 37  0  0  0  0  0  0  0  0999 V2000
    9.5410    8.4610   23.4770 C   0  0  0  0  0  0  0  0  0  0  0  0
    9.2510    9.8730   23.8310 C   0  0  0  0  0  0  0  0  0  0  0  0
   10.1750   10.8770   23.2910 N   0  0  0  0  0  0  0  0  0  0  0  0
    9.6490   12.0570   23.7610 N   0  0  0  0  0  0  0  0  0  0  0  0
   10.2800   13.2850   23.4370 C   0  0  0  0  0  0  0  0  0  0  0  0
   10.3810   14.1880   24.2700 O   0  0  0  0  0  0  0  0  0  0  0  0
   10.6760   13.2670   22.2630 O   0  0  0  0  0  0  0  0  0  0  0  0
   10.9840   14.4850   21.5320 C   0  0  0  0  0  0  0  0  0  0  0  0
   11.4880   14.3110   20.2360 C   0  0  0  0  0  0  0  0  0  0  0  0
    9.6530   15.2330   21.4360 C   0  0  0  0  0  0  0  0  0  0  0  0
   11.9530   15.3020   22.3190 C   0  0  0  0  0  0  0  0  0  0  0  0
    8.4950   11.7960   24.5290 C   0  0  0  0  0  0  0  0  0  0  0  0
    7.6690   12.9100   25.1840 C   0  0  0  0  0  0  0  0  0  0  0  0
    6.5690   12.3560   25.8940 C   0  0  0  0  0  0  0  0  0  0  0  0
    5.6610   13.1770   26.5630 C   0  0  0  0  0  0  0  0  0  0  0  0
    5.4960   14.3710   26.3720 O   0  0  0  0  0  0  0  0  0  0  0  0
    4.9310   12.5150   27.4800 O   0  0  0  0  0  0  0  0  0  0  0  0
    6.3250   10.9740   25.9680 C   0  0  0  0  0  0  0  0  0  0  0  0
    7.1470   10.0520   25.3330 C   0  0  0  0  0  0  0  0  0  0  0  0
    8.2320   10.4530   24.6010 C   0  0  0  0  0  0  0  0  0  0  0  0
   10.6120    8.2690   23.5780 H   0  0  0  0  0  0  0  0  0  0  0  0
    8.9860    7.7750   24.1250 H   0  0  0  0  0  0  0  0  0  0  0  0
    9.2390    8.2470   22.4480 H   0  0  0  0  0  0  0  0  0  0  0  0
   12.3860   13.7470   20.0530 H   0  0  0  0  0  0  0  0  0  0  0  0
   11.7310   15.3140   19.8590 H   0  0  0  0  0  0  0  0  0  0  0  0
   10.8020   13.9150   19.4950 H   0  0  0  0  0  0  0  0  0  0  0  0
    9.3000   15.2960   20.4010 H   0  0  0  0  0  0  0  0  0  0  0  0
    9.7470   16.2380   21.8580 H   0  0  0  0  0  0  0  0  0  0  0  0
    8.8820   14.7250   22.0290 H   0  0  0  0  0  0  0  0  0  0  0  0
   12.4810   14.6540   23.0240 H   0  0  0  0  0  0  0  0  0  0  0  0
   12.6830   15.7960   21.6740 H   0  0  0  0  0  0  0  0  0  0  0  0
   11.4270   16.0830   22.8800 H   0  0  0  0  0  0  0  0  0  0  0  0
    7.9670   13.9560   25.0580 H   0  0  0  0  0  0  0  0  0  0  0  0
    5.1320   11.5720   27.3060 H   0  0  0  0  0  0  0  0  0  0  0  0
    5.4710   10.6020   26.5320 H   0  0  0  0  0  0  0  0  0  0  0  0
    6.8490    9.0320   25.4730 H   0  0  0  0  0  0  0  0  0  0  0  0
  1  2  1  0
  2  3  2  0
  3  4  1  0
  4  5  1  0
  5  6  2  0
  5  7  1  0
  7  8  1  0
  8  9  1  0
  8 10  1  0
  8 11  1  0
  4 12  1  0
 12 13  2  0
 13 14  1  0
 14 15  1  0
 15 16  2  0
 15 17  1  0
 14 18  2  0
 18 19  1  0
 19 20  2  0
 20  2  1  0
 20 12  1  0
  1 21  1  0
  1 22  1  0
  1 23  1  0
  9 24  1  0
  9 25  1  0
  9 26  1  0
 10 27  1  0
 10 28  1  0
 10 29  1  0
 11 30  1  0
 11 31  1  0
 11 32  1  0
 13 33  1  0
 17 34  1  0
 18 35  1  0
 19 36  1  0
A    1
 C1 
A    2
 C2 
A    3
 N1 
A    4
 N2 
A    5
 C3 
A    6
 O1 
A    7
 O2 
A    8
 C4 
A    9
 C5 
A   10
 C6 
A   11
 C7 
A   12
 C8 
A   13
 C9 
A   14
 C10
A   15
 C11
A   16
 O3 
A   17
 O4 
A   18
 C12
A   19
 C13
A   20
 C14
A   21
 H1 
A   22
 H2 
A   23
 H3 
A   24
 H4 
A   25
 H5 
A   26
 H6 
A   27
 H7 
A   28
 H8 
A   29
 H9 
A   30
 H10
A   31
 H11
A   32
 H12
A   33
 H13
A   34
 H14
A   35
 H15
A   36
 H16
M  END
>  <ref_pdb>  (44) 
x0451_0A

>  <ref_mols>  (44) 
x0451_0A,x0554_0A,x0556_0A,x0566_0A,x0310_0A,x0416_0A

>  <original SMILES>  (44) 
Cc1nn(C(=O)OC(C)(C)C)c2cc(C(=O)O)ccc12

>  <rationale>  (44) 
info info set:ROCS-BB-1RB;Warhead nanÅ to Cys110:SG; hydroph_interaction:Y89+V124+D109; 

>  <∆∆G>  (44) 
-9.162562

>  <comRMSD>  (44) 
0.415551

>  <ROCS_TanimotoCombo>  (44) 
0.53

>  <ROCS_ShapeTanimoto>  (44) 
0.371

>  <ROCS_ColorTanimoto>  (44) 
0.159

>  <distance>  (44) 
nan

$$$$
Z1607060571
     RDKit          3D

 28 28  0  0  0  0  0  0  0  0999 V2000
   10.1470   15.7900   20.1190 C   0  0  0  0  0  0  0  0  0  0  0  0
   10.4110   15.0390   21.3720 C   0  0  0  0  0  0  0  0  0  0  0  0
   11.7450   14.4860   21.8630 C   0  0  0  0  0  0  0  0  0  0  0  0
   11.6130   13.6120   23.4230 S   0  0  0  0  0  6  0  0  0  0  0  0
   10.6290   14.2500   24.2710 O   0  0  0  0  0  0  0  0  0  0  0  0
   12.9340   13.3270   23.9360 O   0  0  0  0  0  0  0  0  0  0  0  0
   11.0300   12.1090   22.9560 N   0  0  0  0  0  0  0  0  0  0  0  0
    9.8790   11.6530   23.6990 C   0  0  0  0  0  0  0  0  0  0  0  0
    8.9790   12.4800   24.2900 O   0  0  0  0  0  0  0  0  0  0  0  0
    8.0190   11.7450   24.9290 N   0  0  0  0  0  0  0  0  0  0  0  0
    8.3550   10.4790   24.7140 C   0  0  0  0  0  0  0  0  0  0  0  0
    7.5650    9.5170   25.2580 C   0  0  0  0  0  0  0  0  0  0  0  0
    9.5300   10.3450   23.9250 C   0  0  0  0  0  0  0  0  0  0  0  0
   10.2360    9.0790   23.4540 C   0  0  0  0  0  0  0  0  0  0  0  0
    9.3530   15.3150   19.5390 H   0  0  0  0  0  0  0  0  0  0  0  0
    9.8300   16.8130   20.3550 H   0  0  0  0  0  0  0  0  0  0  0  0
   11.0440   15.8270   19.4940 H   0  0  0  0  0  0  0  0  0  0  0  0
   10.0700   15.7030   22.1740 H   0  0  0  0  0  0  0  0  0  0  0  0
    9.6980   14.2070   21.3790 H   0  0  0  0  0  0  0  0  0  0  0  0
   12.1800   13.7970   21.1330 H   0  0  0  0  0  0  0  0  0  0  0  0
   12.4400   15.3170   22.0120 H   0  0  0  0  0  0  0  0  0  0  0  0
   11.0690   11.9550   21.9460 H   0  0  0  0  0  0  0  0  0  0  0  0
    6.5580    9.5620   24.8430 H   0  0  0  0  0  0  0  0  0  0  0  0
    7.4720    9.6690   26.3340 H   0  0  0  0  0  0  0  0  0  0  0  0
    8.0050    8.5340   25.0750 H   0  0  0  0  0  0  0  0  0  0  0  0
   10.7570    9.2380   22.5060 H   0  0  0  0  0  0  0  0  0  0  0  0
   10.9720    8.7590   24.1970 H   0  0  0  0  0  0  0  0  0  0  0  0
    9.5140    8.2690   23.3070 H   0  0  0  0  0  0  0  0  0  0  0  0
  1  2  1  0
  2  3  1  0
  3  4  1  0
  4  5  2  0
  4  6  2  0
  4  7  1  0
  7  8  1  0
  8  9  1  0
  9 10  1  0
 10 11  2  0
 11 12  1  0
 11 13  1  0
 13 14  1  0
 13  8  2  0
  1 15  1  0
  1 16  1  0
  1 17  1  0
  2 18  1  0
  2 19  1  0
  3 20  1  0
  3 21  1  0
  7 22  1  0
 12 23  1  0
 12 24  1  0
 12 25  1  0
 14 26  1  0
 14 27  1  0
 14 28  1  0
A    1
 C1 
A    2
 C2 
A    3
 C3 
A    4
 S1 
A    5
 O1 
A    6
 O2 
A    7
 N1 
A    8
 C4 
A    9
 O3 
A   10
 N2 
A   11
 C5 
A   12
 C6 
A   13
 C7 
A   14
 C8 
A   15
 H1 
A   16
 H2 
A   17
 H3 
A   18
 H4 
A   19
 H5 
A   20
 H6 
A   21
 H7 
A   22
 H8 
A   23
 H9 
A   24
 H10
A   25
 H11
A   26
 H12
A   27
 H13
A   28
 H14
M  END
>  <ref_pdb>  (45) 
x0451_0A

>  <ref_mols>  (45) 
x0451_0A,x0554_0A,x0556_0A,x0566_0A,x0310_0A,x0416_0A

>  <original SMILES>  (45) 
CCCS(=O)(=O)Nc1onc(C)c1C

>  <rationale>  (45) 
info info set:ROCS-shape_Q1;Warhead nanÅ to Cys110:SG; hbond:S125; hydroph_interaction:V124+D109; 

>  <∆∆G>  (45) 
-9.134723

>  <comRMSD>  (45) 
0.400135

>  <ROCS_TanimotoCombo>  (45) 
0.405

>  <ROCS_ShapeTanimoto>  (45) 
0.275

>  <ROCS_ColorTanimoto>  (45) 
0.13

>  <distance>  (45) 
nan

$$$$
Z54656144
     RDKit          3D

 45 48  0  0  0  0  0  0  0  0999 V2000
   10.9880   13.6150   24.9520 O   0  0  0  0  0  0  0  0  0  0  0  0
   11.0860   13.2430   23.7880 C   0  0  0  0  0  0  0  0  0  0  0  0
   12.0160   13.9730   22.8320 C   0  0  0  0  0  0  0  0  0  0  0  0
   11.3110   14.9900   21.9420 C   0  0  0  0  0  0  0  0  0  0  0  0
   10.2470   15.7200   22.4430 C   0  0  0  0  0  0  0  0  0  0  0  0
    9.7790   16.5720   21.3780 N   0  0  0  0  0  0  0  0  0  0  0  0
   10.5500   16.3350   20.3020 C   0  0  0  0  0  0  0  0  0  0  0  0
   10.4230   16.9320   19.0750 C   0  0  0  0  0  0  0  0  0  0  0  0
   11.2770   16.5720   18.0560 C   0  0  0  0  0  0  0  0  0  0  0  0
   12.2190   15.6300   18.3730 C   0  0  0  0  0  0  0  0  0  0  0  0
   12.3490   15.0400   19.5980 C   0  0  0  0  0  0  0  0  0  0  0  0
   11.5030   15.3770   20.6040 C   0  0  0  0  0  0  0  0  0  0  0  0
   10.4280   12.2130   23.1740 N   0  0  0  0  0  0  0  0  0  0  0  0
    9.5840   11.2890   23.7300 C   0  0  0  0  0  0  0  0  0  0  0  0
    8.5930   11.6260   24.5550 N   0  0  0  0  0  0  0  0  0  0  0  0
    7.9030   10.4780   24.9590 C   0  0  0  0  0  0  0  0  0  0  0  0
    6.8320   10.5020   25.8000 C   0  0  0  0  0  0  0  0  0  0  0  0
    6.7340   11.6740   26.7050 N   0  0  0  0  0  0  0  0  0  0  0  0
    5.9100   11.3180   27.8860 C   0  0  0  0  0  0  0  0  0  0  0  0
    4.4580   11.6820   27.8420 C   0  0  0  0  0  0  0  0  0  0  0  0
    4.2480   13.0280   27.4570 O   0  0  0  0  0  0  0  0  0  0  0  0
    4.8590   13.3260   26.1970 C   0  0  0  0  0  0  0  0  0  0  0  0
    6.3250   12.9530   26.0670 C   0  0  0  0  0  0  0  0  0  0  0  0
    8.4420    9.3030   24.3980 C   0  0  0  0  0  0  0  0  0  0  0  0
    9.7640    9.6370   23.3860 S   0  0  0  0  0  0  0  0  0  0  0  0
   12.4880   13.2250   22.1850 H   0  0  0  0  0  0  0  0  0  0  0  0
   12.7910   14.4870   23.4050 H   0  0  0  0  0  0  0  0  0  0  0  0
    9.7750   15.7310   23.4180 H   0  0  0  0  0  0  0  0  0  0  0  0
    9.0060   17.2320   21.4170 H   0  0  0  0  0  0  0  0  0  0  0  0
    9.6500   17.6790   18.9010 H   0  0  0  0  0  0  0  0  0  0  0  0
   11.2150   16.9910   17.0850 H   0  0  0  0  0  0  0  0  0  0  0  0
   12.8630   15.3620   17.6110 H   0  0  0  0  0  0  0  0  0  0  0  0
   13.1400   14.3130   19.6720 H   0  0  0  0  0  0  0  0  0  0  0  0
   10.7240   11.9530   22.2130 H   0  0  0  0  0  0  0  0  0  0  0  0
    5.8540   10.3130   25.3750 H   0  0  0  0  0  0  0  0  0  0  0  0
    7.0030    9.6270   26.4390 H   0  0  0  0  0  0  0  0  0  0  0  0
    5.9550   10.2410   28.0690 H   0  0  0  0  0  0  0  0  0  0  0  0
    6.3550   11.8240   28.7450 H   0  0  0  0  0  0  0  0  0  0  0  0
    3.9360   11.0420   27.1310 H   0  0  0  0  0  0  0  0  0  0  0  0
    3.9900   11.5280   28.8200 H   0  0  0  0  0  0  0  0  0  0  0  0
    4.2680   12.8780   25.4060 H   0  0  0  0  0  0  0  0  0  0  0  0
    4.7930   14.4150   26.0610 H   0  0  0  0  0  0  0  0  0  0  0  0
    6.9030   13.7780   26.5070 H   0  0  0  0  0  0  0  0  0  0  0  0
    6.5800   12.9130   25.0010 H   0  0  0  0  0  0  0  0  0  0  0  0
    8.1240    8.2730   24.5360 H   0  0  0  0  0  0  0  0  0  0  0  0
  1  2  2  0
  2  3  1  0
  3  4  1  0
  4  5  2  0
  5  6  1  0
  6  7  1  0
  7  8  2  0
  8  9  1  0
  9 10  2  0
 10 11  1  0
 11 12  2  0
  2 13  1  0
 13 14  1  0
 14 15  2  0
 15 16  1  0
 16 17  1  0
 17 18  1  0
 18 19  1  0
 19 20  1  0
 20 21  1  0
 21 22  1  0
 22 23  1  0
 16 24  2  0
 24 25  1  0
 12  4  1  0
 25 14  1  0
 12  7  1  0
 23 18  1  0
  3 26  1  0
  3 27  1  0
  5 28  1  0
  6 29  1  0
  8 30  1  0
  9 31  1  0
 10 32  1  0
 11 33  1  0
 13 34  1  0
 17 35  1  0
 17 36  1  0
 19 37  1  0
 19 38  1  0
 20 39  1  0
 20 40  1  0
 22 41  1  0
 22 42  1  0
 23 43  1  0
 23 44  1  0
 24 45  1  0
A    1
 O1 
A    2
 C1 
A    3
 C2 
A    4
 C3 
A    5
 C4 
A    6
 N1 
A    7
 C5 
A    8
 C6 
A    9
 C7 
A   10
 C8 
A   11
 C9 
A   12
 C10
A   13
 N2 
A   14
 C11
A   15
 N3 
A   16
 C12
A   17
 C13
A   18
 N4 
A   19
 C14
A   20
 C15
A   21
 O2 
A   22
 C16
A   23
 C17
A   24
 C18
A   25
 S1 
A   26
 H1 
A   27
 H2 
A   28
 H3 
A   29
 H4 
A   30
 H5 
A   31
 H6 
A   32
 H7 
A   33
 H8 
A   34
 H9 
A   35
 H10
A   36
 H11
A   37
 H12
A   38
 H13
A   39
 H14
A   40
 H15
A   41
 H16
A   42
 H17
A   43
 H18
A   44
 H19
A   45
 H20
M  END
>  <ref_pdb>  (46) 
x0451_0A

>  <ref_mols>  (46) 
x0451_0A,x0554_0A,x0556_0A,x0566_0A,x0310_0A,x0416_0A

>  <original SMILES>  (46) 
O=C(Cc1c[nH]c2ccccc12)Nc1nc(CN2CCOCC2)cs1

>  <rationale>  (46) 
info info set:ROCS-PPI;Warhead nanÅ to Cys110:SG; hbond:S87+S125; hydroph_interaction:Y89+Y90+D39+T126; pistack:H21; 

>  <∆∆G>  (46) 
-9.127847

>  <comRMSD>  (46) 
0.90224

>  <ROCS_TanimotoCombo>  (46) 
0.52

>  <ROCS_ShapeTanimoto>  (46) 
0.336

>  <ROCS_ColorTanimoto>  (46) 
0.184

>  <distance>  (46) 
nan

$$$$
EN300_1129057
     RDKit          3D

 61 63  0  0  0  0  0  0  0  0999 V2000
    3.6830   15.0830   27.8900 C   0  0  0  0  0  0  0  0  0  0  0  0
    4.9680   14.6350   28.5760 C   0  0  0  0  0  0  0  0  0  0  0  0
    4.6760   13.7020   29.7550 C   0  0  0  0  0  0  0  0  0  0  0  0
    5.7360   15.8420   29.1200 C   0  0  0  0  0  0  0  0  0  0  0  0
    5.8010   13.8890   27.8010 O   0  0  0  0  0  0  0  0  0  0  0  0
    5.3220   12.7840   27.2060 C   0  0  0  0  0  0  0  0  0  0  0  0
    4.0420   12.3200   27.3520 O   0  0  0  0  0  0  0  0  0  0  0  0
    6.2790   12.0660   26.3630 C   0  0  0  0  0  0  0  0  0  0  0  0
    6.3730   10.6930   26.4990 C   0  0  0  0  0  0  0  0  0  0  0  0
    7.2580   10.0100   25.7040 C   0  0  0  0  0  0  0  0  0  0  0  0
    8.0510   10.6340   24.7660 C   0  0  0  0  0  0  0  0  0  0  0  0
    7.9580   11.9990   24.6590 C   0  0  0  0  0  0  0  0  0  0  0  0
    7.0830   12.7580   25.4390 C   0  0  0  0  0  0  0  0  0  0  0  0
    8.7910   12.5510   23.7240 O   0  0  0  0  0  0  0  0  0  0  0  0
   10.1550   12.0380   23.6800 C   0  0  2  0  0  0  0  0  0  0  0  0
   10.8500   12.4220   24.9890 C   0  0  0  0  0  0  0  0  0  0  0  0
   11.4220   13.8190   24.7430 C   0  0  0  0  0  0  0  0  0  0  0  0
   11.4330   13.9720   23.3060 N   0  0  0  0  0  0  0  0  0  0  0  0
   11.2560   15.0960   22.5890 C   0  0  0  0  0  0  0  0  0  0  0  0
   11.3730   16.2020   23.0530 O   0  0  0  0  0  0  0  0  0  0  0  0
   10.9340   14.8150   21.2990 O   0  0  0  0  0  0  0  0  0  0  0  0
   11.4350   15.6890   20.2970 C   0  0  0  0  0  0  0  0  0  0  0  0
   10.6820   17.0140   20.4320 C   0  0  0  0  0  0  0  0  0  0  0  0
   12.8930   15.6930   20.7010 C   0  0  0  0  0  0  0  0  0  0  0  0
   11.4040   15.1460   18.8690 C   0  0  0  0  0  0  0  0  0  0  0  0
   11.0560   12.7710   22.6890 C   0  0  0  0  0  0  0  0  0  0  0  0
   10.2450   10.5370   23.4860 C   0  0  0  0  0  0  0  0  0  0  0  0
    8.9720    9.8360   23.8840 C   0  0  1  0  0  0  0  0  0  0  0  0
    9.3110    8.5270   24.3680 N   0  0  0  0  0  0  0  0  0  0  0  0
    3.1000   14.2140   27.5710 H   0  0  0  0  0  0  0  0  0  0  0  0
    3.8910   15.6870   27.0000 H   0  0  0  0  0  0  0  0  0  0  0  0
    3.0860   15.7050   28.5660 H   0  0  0  0  0  0  0  0  0  0  0  0
    5.4690   13.0440   30.1020 H   0  0  0  0  0  0  0  0  0  0  0  0
    3.8330   13.0620   29.4990 H   0  0  0  0  0  0  0  0  0  0  0  0
    4.3390   14.2690   30.6270 H   0  0  0  0  0  0  0  0  0  0  0  0
    5.0940   16.7250   29.1750 H   0  0  0  0  0  0  0  0  0  0  0  0
    6.1130   15.6590   30.1310 H   0  0  0  0  0  0  0  0  0  0  0  0
    6.5850   16.0790   28.4690 H   0  0  0  0  0  0  0  0  0  0  0  0
    5.7620   10.1510   27.2160 H   0  0  0  0  0  0  0  0  0  0  0  0
    7.3120    8.9530   25.8370 H   0  0  0  0  0  0  0  0  0  0  0  0
    7.0090   13.8350   25.3460 H   0  0  0  0  0  0  0  0  0  0  0  0
   11.6430   11.7240   25.2680 H   0  0  0  0  0  0  0  0  0  0  0  0
   10.1240   12.4690   25.8130 H   0  0  0  0  0  0  0  0  0  0  0  0
   10.8340   14.6110   25.2180 H   0  0  0  0  0  0  0  0  0  0  0  0
   12.4580   13.8930   25.0920 H   0  0  0  0  0  0  0  0  0  0  0  0
    9.6560   16.8610   20.7780 H   0  0  0  0  0  0  0  0  0  0  0  0
   10.6050   17.5190   19.4640 H   0  0  0  0  0  0  0  0  0  0  0  0
   11.1520   17.6760   21.1490 H   0  0  0  0  0  0  0  0  0  0  0  0
   13.2270   16.5930   21.1320 H   0  0  0  0  0  0  0  0  0  0  0  0
   13.5000   15.4780   19.8220 H   0  0  0  0  0  0  0  0  0  0  0  0
   13.0750   14.8930   21.4220 H   0  0  0  0  0  0  0  0  0  0  0  0
   11.0140   14.1220   18.8410 H   0  0  0  0  0  0  0  0  0  0  0  0
   10.7770   15.7540   18.2090 H   0  0  0  0  0  0  0  0  0  0  0  0
   12.4080   15.1470   18.4330 H   0  0  0  0  0  0  0  0  0  0  0  0
   11.9660   12.2190   22.4350 H   0  0  0  0  0  0  0  0  0  0  0  0
   10.5410   13.0870   21.7860 H   0  0  0  0  0  0  0  0  0  0  0  0
   11.0840   10.1250   24.0620 H   0  0  0  0  0  0  0  0  0  0  0  0
   10.4610   10.3290   22.4290 H   0  0  0  0  0  0  0  0  0  0  0  0
    8.4090    9.6400   22.9920 H   0  0  0  0  0  0  0  0  0  0  0  0
    9.7120    8.5790   25.3050 H   0  0  0  0  0  0  0  0  0  0  0  0
    8.4350    8.0110   24.4580 H   0  0  0  0  0  0  0  0  0  0  0  0
  1  2  1  0
  2  3  1  0
  2  4  1  0
  2  5  1  0
  5  6  1  0
  6  7  2  0
  6  8  1  0
  8  9  2  0
  9 10  1  0
 10 11  2  0
 11 12  1  0
 12 13  2  0
 12 14  1  0
 15 14  1  1
 15 16  1  0
 16 17  1  0
 17 18  1  0
 18 19  1  0
 19 20  2  0
 19 21  1  0
 21 22  1  0
 22 23  1  0
 22 24  1  0
 22 25  1  0
 18 26  1  0
 15 27  1  0
 27 28  1  0
 28 29  1  0
 13  8  1  0
 26 15  1  0
 28 11  1  0
  1 30  1  0
  1 31  1  0
  1 32  1  0
  3 33  1  0
  3 34  1  0
  3 35  1  0
  4 36  1  0
  4 37  1  0
  4 38  1  0
  9 39  1  0
 10 40  1  0
 13 41  1  0
 16 42  1  0
 16 43  1  0
 17 44  1  0
 17 45  1  0
 23 46  1  0
 23 47  1  0
 23 48  1  0
 24 49  1  0
 24 50  1  0
 24 51  1  0
 25 52  1  0
 25 53  1  0
 25 54  1  0
 26 55  1  0
 26 56  1  0
 27 57  1  0
 27 58  1  0
 28 59  1  6
 29 60  1  0
 29 61  1  0
A    1
 C1 
A    2
 C2 
A    3
 C3 
A    4
 C4 
A    5
 O1 
A    6
 C5 
A    7
 O2 
A    8
 C6 
A    9
 C7 
A   10
 C8 
A   11
 C9 
A   12
 C10
A   13
 C11
A   14
 O3 
A   15
 C12
A   16
 C13
A   17
 C14
A   18
 N1 
A   19
 C15
A   20
 O4 
A   21
 O5 
A   22
 C16
A   23
 C17
A   24
 C18
A   25
 C19
A   26
 C20
A   27
 C21
A   28
 C22
A   29
 N2 
A   30
 H1 
A   31
 H2 
A   32
 H3 
A   33
 H4 
A   34
 H5 
A   35
 H6 
A   36
 H7 
A   37
 H8 
A   38
 H9 
A   39
 H10
A   40
 H11
A   41
 H12
A   42
 H13
A   43
 H14
A   44
 H15
A   45
 H16
A   46
 H17
A   47
 H18
A   48
 H19
A   49
 H20
A   50
 H21
A   51
 H22
A   52
 H23
A   53
 H24
A   54
 H25
A   55
 H26
A   56
 H27
A   57
 H28
A   58
 H29
A   59
 H30
A   60
 H31
A   61
 H32
M  END
>  <ref_pdb>  (47) 
x0451_0A

>  <ref_mols>  (47) 
x0451_0A,x0554_0A,x0556_0A,x0566_0A,x0310_0A,x0416_0A

>  <original SMILES>  (47) 
CC(C)(C)OC(=O)c1ccc2c(c1)O[C@@]1(CCN(C(=O)OC(C)(C)C)C1)C[C@H]2N

>  <rationale>  (47) 
info info set:ROCS-BB-1RB;Warhead nanÅ to Cys110:SG; hbond:S105+S87+G127; hydroph_interaction:Y89; 

>  <∆∆G>  (47) 
-9.127591

>  <comRMSD>  (47) 
0.696825

>  <ROCS_TanimotoCombo>  (47) 
0.52

>  <ROCS_ShapeTanimoto>  (47) 
0.388

>  <ROCS_ColorTanimoto>  (47) 
0.133

>  <distance>  (47) 
nan

$$$$
EN300_697696
     RDKit          3D

 40 41  0  0  0  0  0  0  0  0999 V2000
    5.3140   10.4780   26.9840 C   0  0  0  0  0  0  0  0  0  0  0  0
    6.4880   10.9200   26.1360 C   0  0  0  0  0  0  0  0  0  0  0  0
    6.7870   12.3810   26.0710 C   0  0  0  0  0  0  0  0  0  0  0  0
    7.8680   12.7890   25.2870 C   0  0  0  0  0  0  0  0  0  0  0  0
    8.6220   11.8320   24.5990 C   0  0  0  0  0  0  0  0  0  0  0  0
    8.3320   10.4490   24.6670 C   0  0  0  0  0  0  0  0  0  0  0  0
    7.2650   10.0040   25.4410 C   0  0  0  0  0  0  0  0  0  0  0  0
    9.2970    9.7710   23.8490 C   0  0  0  0  0  0  0  0  0  0  0  0
    9.4680    8.3980   23.5820 C   0  0  0  0  0  0  0  0  0  0  0  0
    8.6600    7.5480   22.6050 C   0  0  0  0  0  0  0  0  0  0  0  0
    8.3530    6.1140   23.0600 C   0  0  0  0  0  0  0  0  0  0  0  0
    8.9560    5.2390   22.4770 O   0  0  0  0  0  0  0  0  0  0  0  0
   10.1680   10.7380   23.2880 C   0  0  0  0  0  0  0  0  0  0  0  0
    9.7220   11.9540   23.7710 N   0  0  0  0  0  0  0  0  0  0  0  0
   10.3270   13.2310   23.4680 C   0  0  0  0  0  0  0  0  0  0  0  0
   10.6110   14.0000   24.3720 O   0  0  0  0  0  0  0  0  0  0  0  0
   10.5030   13.4360   22.1370 O   0  0  0  0  0  0  0  0  0  0  0  0
   11.4320   14.4640   21.7070 C   0  0  0  0  0  0  0  0  0  0  0  0
   11.6840   14.4240   20.3360 C   0  0  0  0  0  0  0  0  0  0  0  0
   12.4770   14.2580   22.5870 C   0  0  0  0  0  0  0  0  0  0  0  0
   10.8730   15.8360   22.0570 C   0  0  0  0  0  0  0  0  0  0  0  0
    4.5490   11.2530   27.0840 H   0  0  0  0  0  0  0  0  0  0  0  0
    4.8600    9.5910   26.5370 H   0  0  0  0  0  0  0  0  0  0  0  0
    5.6470   10.2190   27.9870 H   0  0  0  0  0  0  0  0  0  0  0  0
    6.1840   13.1030   26.6140 H   0  0  0  0  0  0  0  0  0  0  0  0
    8.1080   13.8470   25.2240 H   0  0  0  0  0  0  0  0  0  0  0  0
    7.0470    8.9590   25.5020 H   0  0  0  0  0  0  0  0  0  0  0  0
    8.5730    6.0160   24.1160 H   0  0  0  0  0  0  0  0  0  0  0  0
    7.3130    5.8970   22.9020 H   0  0  0  0  0  0  0  0  0  0  0  0
    8.7700    4.4150   22.9580 H   0  0  0  0  0  0  0  0  0  0  0  0
   11.0180   10.6520   22.6290 H   0  0  0  0  0  0  0  0  0  0  0  0
   12.0630   15.3860   19.9730 H   0  0  0  0  0  0  0  0  0  0  0  0
   12.4200   13.6730   20.0600 H   0  0  0  0  0  0  0  0  0  0  0  0
   10.7510   14.1810   19.8100 H   0  0  0  0  0  0  0  0  0  0  0  0
   12.1910   14.4930   23.6140 H   0  0  0  0  0  0  0  0  0  0  0  0
   13.2960   14.9300   22.3330 H   0  0  0  0  0  0  0  0  0  0  0  0
   12.8260   13.2260   22.5580 H   0  0  0  0  0  0  0  0  0  0  0  0
   11.5470   16.6310   21.7510 H   0  0  0  0  0  0  0  0  0  0  0  0
   10.7130   15.9390   23.1350 H   0  0  0  0  0  0  0  0  0  0  0  0
    9.9220   16.0140   21.5420 H   0  0  0  0  0  0  0  0  0  0  0  0
  1  2  1  0
  2  3  2  0
  3  4  1  0
  4  5  2  0
  5  6  1  0
  6  7  2  0
  6  8  1  0
  8  9  1  0
  9 10  3  0
 10 11  1  0
 11 12  1  0
  8 13  2  0
 13 14  1  0
 14 15  1  0
 15 16  2  0
 15 17  1  0
 17 18  1  0
 18 19  1  0
 18 20  1  0
 18 21  1  0
  7  2  1  0
 14  5  1  0
  1 22  1  0
  1 23  1  0
  1 24  1  0
  3 25  1  0
  4 26  1  0
  7 27  1  0
 11 28  1  0
 11 29  1  0
 12 30  1  0
 13 31  1  0
 19 32  1  0
 19 33  1  0
 19 34  1  0
 20 35  1  0
 20 36  1  0
 20 37  1  0
 21 38  1  0
 21 39  1  0
 21 40  1  0
A    1
 C1 
A    2
 C2 
A    3
 C3 
A    4
 C4 
A    5
 C5 
A    6
 C6 
A    7
 C7 
A    8
 C8 
A    9
 C9 
A   10
 C10
A   11
 C11
A   12
 O1 
A   13
 C12
A   14
 N1 
A   15
 C13
A   16
 O2 
A   17
 O3 
A   18
 C14
A   19
 C15
A   20
 C16
A   21
 C17
A   22
 H1 
A   23
 H2 
A   24
 H3 
A   25
 H4 
A   26
 H5 
A   27
 H6 
A   28
 H7 
A   29
 H8 
A   30
 H9 
A   31
 H10
A   32
 H11
A   33
 H12
A   34
 H13
A   35
 H14
A   36
 H15
A   37
 H16
A   38
 H17
A   39
 H18
A   40
 H19
M  END
>  <ref_pdb>  (48) 
x0451_0A

>  <ref_mols>  (48) 
x0451_0A,x0554_0A,x0556_0A,x0566_0A,x0310_0A,x0416_0A

>  <original SMILES>  (48) 
Cc1ccc2c(c1)c(C#CCO)cn2C(=O)OC(C)(C)C

>  <rationale>  (48) 
info info set:ROCS-BB-0RB;Warhead nanÅ to Cys110:SG; hydroph_interaction:Y89+V124+D109; 

>  <∆∆G>  (48) 
-9.125322

>  <comRMSD>  (48) 
0.492268

>  <ROCS_TanimotoCombo>  (48) 
0.477

>  <ROCS_ShapeTanimoto>  (48) 
0.347

>  <ROCS_ColorTanimoto>  (48) 
0.131

>  <distance>  (48) 
nan

$$$$
EN300_27783592
     RDKit          3D

 51 52  0  0  0  0  0  0  0  0999 V2000
    9.9470   15.6000   21.3820 C   0  0  0  0  0  0  0  0  0  0  0  0
   11.0080   14.7020   21.4640 C   0  0  0  0  0  0  0  0  0  0  0  0
   11.6560   14.3800   20.2760 C   0  0  0  0  0  0  0  0  0  0  0  0
   12.0760   15.3480   22.3250 C   0  0  0  0  0  0  0  0  0  0  0  0
   10.6140   13.5400   22.2560 O   0  0  0  0  0  0  0  0  0  0  0  0
   10.1480   13.6450   23.5460 C   0  0  0  0  0  0  0  0  0  0  0  0
   10.3990   14.5780   24.2970 O   0  0  0  0  0  0  0  0  0  0  0  0
    9.3760   12.5490   23.9080 N   0  0  0  0  0  0  0  0  0  0  0  0
    9.9880   11.2970   23.7030 C   0  0  0  0  0  0  0  0  0  0  0  0
    9.0130   10.1880   23.6940 C   0  0  1  0  0  0  0  0  0  0  0  0
    9.6480    8.9580   23.3010 C   0  0  0  0  0  0  0  0  0  0  0  0
   10.7820    9.0970   24.2670 C   0  0  0  0  0  0  0  0  0  0  0  0
    8.7820    7.6740   23.2730 C   0  0  0  0  0  0  0  0  0  0  0  0
   10.3820    9.2650   22.0970 C   0  0  0  0  0  0  0  0  0  0  0  0
    8.4860   10.0730   25.0600 C   0  0  0  0  0  0  0  0  0  0  0  0
    7.8780   11.2370   25.3880 C   0  0  0  0  0  0  0  0  0  0  0  0
    6.8340   11.1070   26.2920 C   0  0  0  0  0  0  0  0  0  0  0  0
    6.1510   12.2240   26.7120 C   0  0  0  0  0  0  0  0  0  0  0  0
    5.0420   12.1140   27.6780 C   0  0  0  0  0  0  0  0  0  0  0  0
    3.8540   12.2320   27.4380 O   0  0  0  0  0  0  0  0  0  0  0  0
    5.4780   11.8630   28.9250 O   0  0  0  0  0  0  0  0  0  0  0  0
    6.5220   13.4730   26.2150 C   0  0  0  0  0  0  0  0  0  0  0  0
    7.5770   13.6020   25.2930 C   0  0  0  0  0  0  0  0  0  0  0  0
    8.2860   12.4910   24.8500 C   0  0  0  0  0  0  0  0  0  0  0  0
    9.3840   15.6500   22.3200 H   0  0  0  0  0  0  0  0  0  0  0  0
    9.2560   15.3190   20.5800 H   0  0  0  0  0  0  0  0  0  0  0  0
   10.3220   16.6050   21.1660 H   0  0  0  0  0  0  0  0  0  0  0  0
   10.9870   13.9120   19.5470 H   0  0  0  0  0  0  0  0  0  0  0  0
   12.1070   15.2570   19.8020 H   0  0  0  0  0  0  0  0  0  0  0  0
   12.4410   13.6610   20.5030 H   0  0  0  0  0  0  0  0  0  0  0  0
   12.4180   14.6570   23.1030 H   0  0  0  0  0  0  0  0  0  0  0  0
   12.9580   15.6110   21.7280 H   0  0  0  0  0  0  0  0  0  0  0  0
   11.6880   16.2540   22.7960 H   0  0  0  0  0  0  0  0  0  0  0  0
   10.5530   11.2980   22.7640 H   0  0  0  0  0  0  0  0  0  0  0  0
   10.7360   11.1730   24.4940 H   0  0  0  0  0  0  0  0  0  0  0  0
    8.1730   10.4460   23.1030 H   0  0  0  0  0  0  0  0  0  0  0  0
   10.4080    9.4530   25.2240 H   0  0  0  0  0  0  0  0  0  0  0  0
   11.2700    8.1930   24.4440 H   0  0  0  0  0  0  0  0  0  0  0  0
   11.5760    9.7910   24.0110 H   0  0  0  0  0  0  0  0  0  0  0  0
    9.3180    6.8260   22.8770 H   0  0  0  0  0  0  0  0  0  0  0  0
    7.8890    7.8040   22.6590 H   0  0  0  0  0  0  0  0  0  0  0  0
    8.4750    7.3850   24.2820 H   0  0  0  0  0  0  0  0  0  0  0  0
   11.3930    8.9150   22.2010 H   0  0  0  0  0  0  0  0  0  0  0  0
   10.4360   10.3350   22.0150 H   0  0  0  0  0  0  0  0  0  0  0  0
    9.9290    8.8680   21.2160 H   0  0  0  0  0  0  0  0  0  0  0  0
    7.7850    9.2370   25.1570 H   0  0  0  0  0  0  0  0  0  0  0  0
    9.2990    9.9390   25.7560 H   0  0  0  0  0  0  0  0  0  0  0  0
    6.5620   10.1220   26.6700 H   0  0  0  0  0  0  0  0  0  0  0  0
    4.9140   12.4380   29.4850 H   0  0  0  0  0  0  0  0  0  0  0  0
    5.9950   14.3710   26.5370 H   0  0  0  0  0  0  0  0  0  0  0  0
    7.8010   14.6080   24.9560 H   0  0  0  0  0  0  0  0  0  0  0  0
  1  2  1  0
  2  3  1  0
  2  4  1  0
  2  5  1  0
  5  6  1  0
  6  7  2  0
  6  8  1  0
  8  9  1  0
  9 10  1  0
 10 11  1  0
 11 12  1  0
 11 13  1  0
 11 14  1  0
 10 15  1  0
 15 16  1  0
 16 17  2  0
 17 18  1  0
 18 19  1  0
 19 20  2  0
 19 21  1  0
 18 22  2  0
 22 23  1  0
 23 24  2  0
 24  8  1  0
 24 16  1  0
  1 25  1  0
  1 26  1  0
  1 27  1  0
  3 28  1  0
  3 29  1  0
  3 30  1  0
  4 31  1  0
  4 32  1  0
  4 33  1  0
  9 34  1  0
  9 35  1  0
 10 36  1  6
 12 37  1  0
 12 38  1  0
 12 39  1  0
 13 40  1  0
 13 41  1  0
 13 42  1  0
 14 43  1  0
 14 44  1  0
 14 45  1  0
 15 46  1  0
 15 47  1  0
 17 48  1  0
 21 49  1  0
 22 50  1  0
 23 51  1  0
A    1
 C1 
A    2
 C2 
A    3
 C3 
A    4
 C4 
A    5
 O1 
A    6
 C5 
A    7
 O2 
A    8
 N1 
A    9
 C6 
A   10
 C7 
A   11
 C8 
A   12
 C9 
A   13
 C10
A   14
 C11
A   15
 C12
A   16
 C13
A   17
 C14
A   18
 C15
A   19
 C16
A   20
 O3 
A   21
 O4 
A   22
 C17
A   23
 C18
A   24
 C19
A   25
 H1 
A   26
 H2 
A   27
 H3 
A   28
 H4 
A   29
 H5 
A   30
 H6 
A   31
 H7 
A   32
 H8 
A   33
 H9 
A   34
 H10
A   35
 H11
A   36
 H12
A   37
 H13
A   38
 H14
A   39
 H15
A   40
 H16
A   41
 H17
A   42
 H18
A   43
 H19
A   44
 H20
A   45
 H21
A   46
 H22
A   47
 H23
A   48
 H24
A   49
 H25
A   50
 H26
A   51
 H27
M  END
>  <ref_pdb>  (49) 
x0451_0A

>  <ref_mols>  (49) 
x0451_0A,x0554_0A,x0556_0A,x0566_0A,x0310_0A,x0416_0A

>  <original SMILES>  (49) 
CC(C)(C)OC(=O)N1C[C@@H](C(C)(C)C)Cc2cc(C(=O)O)ccc21

>  <rationale>  (49) 
info info set:ROCS-BB-1RB;Warhead nanÅ to Cys110:SG; hydroph_interaction:Y89+A110+V124; 

>  <∆∆G>  (49) 
-9.028838

>  <comRMSD>  (49) 
0.83541

>  <ROCS_TanimotoCombo>  (49) 
0.513

>  <ROCS_ShapeTanimoto>  (49) 
0.372

>  <ROCS_ColorTanimoto>  (49) 
0.141

>  <distance>  (49) 
nan

$$$$
EN300_39912998
     RDKit          3D

 44 46  0  0  0  0  0  0  0  0999 V2000
    9.3790    8.8670   23.7850 C   0  0  0  0  0  0  0  0  0  0  0  0
    9.2280   10.2060   24.1150 N   0  0  0  0  0  0  0  0  0  0  0  0
    9.9370   11.1880   23.5560 C   0  0  0  0  0  0  0  0  0  0  0  0
   10.9130   11.0130   22.8470 O   0  0  0  0  0  0  0  0  0  0  0  0
    9.4850   12.5100   23.8950 C   0  0  0  0  0  0  0  0  0  0  0  0
    8.9950   13.4400   22.9900 C   0  0  0  0  0  0  0  0  0  0  0  0
   10.0320   14.2660   23.5390 N   0  0  0  0  0  0  0  0  0  0  0  0
   10.7350   15.0670   22.7090 C   0  0  0  0  0  0  0  0  0  0  0  0
   11.3100   16.0650   23.0600 O   0  0  0  0  0  0  0  0  0  0  0  0
   10.6730   14.6230   21.4310 O   0  0  0  0  0  0  0  0  0  0  0  0
   11.2980   15.4830   20.4940 C   0  0  0  0  0  0  0  0  0  0  0  0
   12.6230   15.5510   20.9240 C   0  0  0  0  0  0  0  0  0  0  0  0
   11.2820   14.8440   19.1010 C   0  0  0  0  0  0  0  0  0  0  0  0
   10.4690   16.7760   20.4850 C   0  0  0  0  0  0  0  0  0  0  0  0
   10.4830   13.2390   24.5340 C   0  0  0  0  0  0  0  0  0  0  0  0
    8.2520   12.0820   24.7480 C   0  0  0  0  0  0  0  0  0  0  0  0
    7.2310   12.9510   25.4130 C   0  0  0  0  0  0  0  0  0  0  0  0
    6.1550   12.1710   26.1500 C   0  0  0  0  0  0  0  0  0  0  0  0
    5.0770   12.9230   26.8330 C   0  0  0  0  0  0  0  0  0  0  0  0
    4.9870   14.1360   26.8710 O   0  0  0  0  0  0  0  0  0  0  0  0
    4.1700   12.1330   27.4280 O   0  0  0  0  0  0  0  0  0  0  0  0
    6.1750   10.7630   26.1810 C   0  0  0  0  0  0  0  0  0  0  0  0
    7.1740   10.0350   25.5300 C   0  0  0  0  0  0  0  0  0  0  0  0
    8.1600   10.7070   24.8410 C   0  0  0  0  0  0  0  0  0  0  0  0
   10.4380    8.5810   23.7980 H   0  0  0  0  0  0  0  0  0  0  0  0
    8.9430    8.6610   22.8010 H   0  0  0  0  0  0  0  0  0  0  0  0
    8.8530    8.2540   24.5240 H   0  0  0  0  0  0  0  0  0  0  0  0
    7.9890   13.8340   23.1150 H   0  0  0  0  0  0  0  0  0  0  0  0
    9.1660   13.4450   21.9450 H   0  0  0  0  0  0  0  0  0  0  0  0
   12.8280   16.5360   21.2650 H   0  0  0  0  0  0  0  0  0  0  0  0
   13.0450   14.9340   21.7220 H   0  0  0  0  0  0  0  0  0  0  0  0
   13.2460   15.3590   20.0600 H   0  0  0  0  0  0  0  0  0  0  0  0
   10.9320   13.8070   19.1630 H   0  0  0  0  0  0  0  0  0  0  0  0
   10.6290   15.4070   18.4290 H   0  0  0  0  0  0  0  0  0  0  0  0
   12.2840   14.8260   18.6570 H   0  0  0  0  0  0  0  0  0  0  0  0
   10.8450   17.4920   21.2090 H   0  0  0  0  0  0  0  0  0  0  0  0
   10.4700   17.2640   19.5060 H   0  0  0  0  0  0  0  0  0  0  0  0
    9.4220   16.5680   20.7330 H   0  0  0  0  0  0  0  0  0  0  0  0
   10.2960   13.5340   25.5730 H   0  0  0  0  0  0  0  0  0  0  0  0
   11.5040   12.8710   24.4100 H   0  0  0  0  0  0  0  0  0  0  0  0
    7.2630   14.0360   25.3600 H   0  0  0  0  0  0  0  0  0  0  0  0
    4.4410   11.2270   27.1700 H   0  0  0  0  0  0  0  0  0  0  0  0
    5.3980   10.2210   26.7170 H   0  0  0  0  0  0  0  0  0  0  0  0
    7.1630    8.9620   25.5720 H   0  0  0  0  0  0  0  0  0  0  0  0
  1  2  1  0
  2  3  1  0
  3  4  2  0
  3  5  1  0
  5  6  1  0
  6  7  1  0
  7  8  1  0
  8  9  2  0
  8 10  1  0
 10 11  1  0
 11 12  1  0
 11 13  1  0
 11 14  1  0
  7 15  1  0
  5 16  1  0
 16 17  2  0
 17 18  1  0
 18 19  1  0
 19 20  2  0
 19 21  1  0
 18 22  2  0
 22 23  1  0
 23 24  2  0
 24  2  1  0
 15  5  1  0
 24 16  1  0
  1 25  1  0
  1 26  1  0
  1 27  1  0
  6 28  1  0
  6 29  1  0
 12 30  1  0
 12 31  1  0
 12 32  1  0
 13 33  1  0
 13 34  1  0
 13 35  1  0
 14 36  1  0
 14 37  1  0
 14 38  1  0
 15 39  1  0
 15 40  1  0
 17 41  1  0
 21 42  1  0
 22 43  1  0
 23 44  1  0
A    1
 C1 
A    2
 N1 
A    3
 C2 
A    4
 O1 
A    5
 C3 
A    6
 C4 
A    7
 N2 
A    8
 C5 
A    9
 O2 
A   10
 O3 
A   11
 C6 
A   12
 C7 
A   13
 C8 
A   14
 C9 
A   15
 C10
A   16
 C11
A   17
 C12
A   18
 C13
A   19
 C14
A   20
 O4 
A   21
 O5 
A   22
 C15
A   23
 C16
A   24
 C17
A   25
 H1 
A   26
 H2 
A   27
 H3 
A   28
 H4 
A   29
 H5 
A   30
 H6 
A   31
 H7 
A   32
 H8 
A   33
 H9 
A   34
 H10
A   35
 H11
A   36
 H12
A   37
 H13
A   38
 H14
A   39
 H15
A   40
 H16
A   41
 H17
A   42
 H18
A   43
 H19
A   44
 H20
M  END
>  <ref_pdb>  (50) 
x0451_0A

>  <ref_mols>  (50) 
x0451_0A,x0554_0A,x0556_0A,x0566_0A,x0310_0A,x0416_0A

>  <original SMILES>  (50) 
CN1C(=O)C2(CN(C(=O)OC(C)(C)C)C2)c2cc(C(=O)O)ccc21

>  <rationale>  (50) 
info info set:ROCS-BB-1RB;Warhead nanÅ to Cys110:SG; hbond:S87; hydroph_interaction:Y89; 

>  <∆∆G>  (50) 
-9.017176

>  <comRMSD>  (50) 
0.593143

>  <ROCS_TanimotoCombo>  (50) 
0.528

>  <ROCS_ShapeTanimoto>  (50) 
0.38

>  <ROCS_ColorTanimoto>  (50) 
0.148

>  <distance>  (50) 
nan

$$$$
EN300_28294790
     RDKit          3D

 39 40  0  0  0  0  0  0  0  0999 V2000
   11.7360   14.4800   20.2160 C   0  0  0  0  0  0  0  0  0  0  0  0
   11.3500   14.5840   21.6980 C   0  0  0  0  0  0  0  0  0  0  0  0
   10.8370   15.9270   22.0740 C   0  0  0  0  0  0  0  0  0  0  0  0
   12.5520   14.2760   22.5570 C   0  0  0  0  0  0  0  0  0  0  0  0
   10.3110   13.6960   22.1340 O   0  0  0  0  0  0  0  0  0  0  0  0
   10.2320   13.4340   23.4640 C   0  0  0  0  0  0  0  0  0  0  0  0
   10.5920   14.2240   24.3310 O   0  0  0  0  0  0  0  0  0  0  0  0
    9.7250   12.2370   23.7730 N   0  0  0  0  0  0  0  0  0  0  0  0
   10.3340   11.0840   23.3410 C   0  0  0  0  0  0  0  0  0  0  0  0
    9.6450    9.9220   23.9770 C   0  0  0  0  0  0  0  0  0  0  0  0
   10.9060    9.2930   24.4580 C   0  0  0  0  0  0  0  0  0  0  0  0
    9.1480    8.8260   23.0270 C   0  0  0  0  0  0  0  0  0  0  0  0
    8.4700   10.5160   24.8160 C   0  0  0  0  0  0  0  0  0  0  0  0
    7.3540    9.9350   25.6640 C   0  0  0  0  0  0  0  0  0  0  0  0
    6.4870   11.0100   26.2890 C   0  0  0  0  0  0  0  0  0  0  0  0
    6.7370   12.3640   26.0790 C   0  0  0  0  0  0  0  0  0  0  0  0
    7.7870   12.8050   25.2730 C   0  0  0  0  0  0  0  0  0  0  0  0
    8.0390   14.6690   25.0570 Br  0  0  0  0  0  0  0  0  0  0  0  0
    8.6430   11.8990   24.6340 C   0  0  0  0  0  0  0  0  0  0  0  0
   10.8630   14.2640   19.5960 H   0  0  0  0  0  0  0  0  0  0  0  0
   12.4610   13.6900   20.0570 H   0  0  0  0  0  0  0  0  0  0  0  0
   12.1740   15.4100   19.8450 H   0  0  0  0  0  0  0  0  0  0  0  0
   10.6520   16.1240   23.1250 H   0  0  0  0  0  0  0  0  0  0  0  0
   11.5330   16.7040   21.7430 H   0  0  0  0  0  0  0  0  0  0  0  0
    9.8940   16.1260   21.5520 H   0  0  0  0  0  0  0  0  0  0  0  0
   12.8690   13.2420   22.4110 H   0  0  0  0  0  0  0  0  0  0  0  0
   13.3640   14.9500   22.3000 H   0  0  0  0  0  0  0  0  0  0  0  0
   12.3450   14.4020   23.6200 H   0  0  0  0  0  0  0  0  0  0  0  0
   11.3720   11.1520   23.6940 H   0  0  0  0  0  0  0  0  0  0  0  0
   10.3820   10.9440   22.2850 H   0  0  0  0  0  0  0  0  0  0  0  0
   10.9090    8.2570   24.1820 H   0  0  0  0  0  0  0  0  0  0  0  0
   11.0820    9.4300   25.5100 H   0  0  0  0  0  0  0  0  0  0  0  0
   11.7650    9.7600   23.9640 H   0  0  0  0  0  0  0  0  0  0  0  0
    9.4180    7.8350   23.4080 H   0  0  0  0  0  0  0  0  0  0  0  0
    9.6110    8.9250   22.0440 H   0  0  0  0  0  0  0  0  0  0  0  0
    8.0710    8.8320   22.9350 H   0  0  0  0  0  0  0  0  0  0  0  0
    7.2020    8.8820   25.8040 H   0  0  0  0  0  0  0  0  0  0  0  0
    5.6580   10.7140   26.9160 H   0  0  0  0  0  0  0  0  0  0  0  0
    6.0910   13.1050   26.5570 H   0  0  0  0  0  0  0  0  0  0  0  0
  1  2  1  0
  2  3  1  0
  2  4  1  0
  2  5  1  0
  5  6  1  0
  6  7  2  0
  6  8  1  0
  8  9  1  0
  9 10  1  0
 10 11  1  0
 10 12  1  0
 10 13  1  0
 13 14  2  0
 14 15  1  0
 15 16  2  0
 16 17  1  0
 17 18  1  0
 17 19  2  0
 19  8  1  0
 19 13  1  0
  1 20  1  0
  1 21  1  0
  1 22  1  0
  3 23  1  0
  3 24  1  0
  3 25  1  0
  4 26  1  0
  4 27  1  0
  4 28  1  0
  9 29  1  0
  9 30  1  0
 11 31  1  0
 11 32  1  0
 11 33  1  0
 12 34  1  0
 12 35  1  0
 12 36  1  0
 14 37  1  0
 15 38  1  0
 16 39  1  0
A    1
 C1 
A    2
 C2 
A    3
 C3 
A    4
 C4 
A    5
 O1 
A    6
 C5 
A    7
 O2 
A    8
 N1 
A    9
 C6 
A   10
 C7 
A   11
 C8 
A   12
 C9 
A   13
 C10
A   14
 C11
A   15
 C12
A   16
 C13
A   17
 C14
A   18
BR1 
A   19
 C15
A   20
 H1 
A   21
 H2 
A   22
 H3 
A   23
 H4 
A   24
 H5 
A   25
 H6 
A   26
 H7 
A   27
 H8 
A   28
 H9 
A   29
 H10
A   30
 H11
A   31
 H12
A   32
 H13
A   33
 H14
A   34
 H15
A   35
 H16
A   36
 H17
A   37
 H18
A   38
 H19
A   39
 H20
M  END
>  <ref_pdb>  (51) 
x0451_0A

>  <ref_mols>  (51) 
x0451_0A,x0554_0A,x0556_0A,x0566_0A,x0310_0A,x0416_0A

>  <original SMILES>  (51) 
CC(C)(C)OC(=O)N1CC(C)(C)c2cccc(Br)c21

>  <rationale>  (51) 
info info set:ROCS-BB-0RB;Warhead nanÅ to Cys110:SG; hydroph_interaction:Y89+V124+D109; 

>  <∆∆G>  (51) 
-8.975243

>  <comRMSD>  (51) 
0.715521

>  <ROCS_TanimotoCombo>  (51) 
0.477

>  <ROCS_ShapeTanimoto>  (51) 
0.347

>  <ROCS_ColorTanimoto>  (51) 
0.13

>  <distance>  (51) 
nan

$$$$
EN300_624597
     RDKit          3D

 38 39  0  0  0  0  0  0  0  0999 V2000
    5.3880   10.1820   26.9350 C   0  0  0  0  0  0  0  0  0  0  0  0
    6.5420   10.6220   26.0630 C   0  0  0  0  0  0  0  0  0  0  0  0
    6.5740   12.1570   25.9430 C   0  0  0  0  0  0  0  0  0  0  0  0
    7.6210   12.9570   25.1230 C   0  0  0  0  0  0  0  0  0  0  0  0
    8.6150   12.0330   24.4600 C   0  0  0  0  0  0  0  0  0  0  0  0
    8.4370   10.7440   24.6700 C   0  0  0  0  0  0  0  0  0  0  0  0
    7.5640    9.8910   25.3600 C   0  0  0  0  0  0  0  0  0  0  0  0
    9.4370    9.8540   24.0310 C   0  0  0  0  0  0  0  0  0  0  0  0
   10.0350    8.4710   23.7590 C   0  0  0  0  0  0  0  0  0  0  0  0
    8.8080    8.0170   23.0870 C   0  0  0  0  0  0  0  0  0  0  0  0
    7.8100    7.2360   22.3830 N   0  0  0  0  0  0  0  0  0  0  0  0
   10.2770   11.0090   23.3450 C   0  0  0  0  0  0  0  0  0  0  0  0
    9.6930   12.3070   23.6750 N   0  0  0  0  0  0  0  0  0  0  0  0
   10.1370   13.5710   23.2980 C   0  0  0  0  0  0  0  0  0  0  0  0
   10.3570   14.4280   24.1520 O   0  0  0  0  0  0  0  0  0  0  0  0
   10.2860   13.6940   21.9620 O   0  0  0  0  0  0  0  0  0  0  0  0
   11.3310   14.5990   21.5770 C   0  0  0  0  0  0  0  0  0  0  0  0
   11.7020   14.3720   20.1240 C   0  0  0  0  0  0  0  0  0  0  0  0
   12.5000   14.3180   22.4870 C   0  0  0  0  0  0  0  0  0  0  0  0
   10.8730   16.0350   21.7130 C   0  0  0  0  0  0  0  0  0  0  0  0
    4.7990    9.4200   26.4360 H   0  0  0  0  0  0  0  0  0  0  0  0
    5.7510    9.7420   27.8670 H   0  0  0  0  0  0  0  0  0  0  0  0
    4.7360   11.0250   27.1740 H   0  0  0  0  0  0  0  0  0  0  0  0
    5.7710   12.6560   26.4980 H   0  0  0  0  0  0  0  0  0  0  0  0
    7.6010   14.0420   25.0710 H   0  0  0  0  0  0  0  0  0  0  0  0
    7.6640    8.8130   25.3590 H   0  0  0  0  0  0  0  0  0  0  0  0
    8.1230    6.9250   21.4700 H   0  0  0  0  0  0  0  0  0  0  0  0
    7.5510    6.4040   22.9080 H   0  0  0  0  0  0  0  0  0  0  0  0
   11.1650   10.9530   22.7230 H   0  0  0  0  0  0  0  0  0  0  0  0
   12.4470   13.5950   20.0040 H   0  0  0  0  0  0  0  0  0  0  0  0
   12.0770   15.2900   19.6560 H   0  0  0  0  0  0  0  0  0  0  0  0
   10.8190   14.0570   19.5560 H   0  0  0  0  0  0  0  0  0  0  0  0
   12.2490   14.4570   23.5420 H   0  0  0  0  0  0  0  0  0  0  0  0
   13.3230   14.9990   22.2620 H   0  0  0  0  0  0  0  0  0  0  0  0
   12.8220   13.2790   22.3800 H   0  0  0  0  0  0  0  0  0  0  0  0
   10.5610   16.4590   20.7490 H   0  0  0  0  0  0  0  0  0  0  0  0
   10.0120   16.1140   22.3870 H   0  0  0  0  0  0  0  0  0  0  0  0
   11.6810   16.6600   22.0980 H   0  0  0  0  0  0  0  0  0  0  0  0
  1  2  1  0
  2  3  2  0
  3  4  1  0
  4  5  2  0
  5  6  1  0
  6  7  2  0
  6  8  1  0
  8  9  1  0
  9 10  3  0
 10 11  1  0
  8 12  2  0
 12 13  1  0
 13 14  1  0
 14 15  2  0
 14 16  1  0
 16 17  1  0
 17 18  1  0
 17 19  1  0
 17 20  1  0
  7  2  1  0
 13  5  1  0
  1 21  1  0
  1 22  1  0
  1 23  1  0
  3 24  1  0
  4 25  1  0
  7 26  1  0
 11 27  1  0
 11 28  1  0
 12 29  1  0
 18 30  1  0
 18 31  1  0
 18 32  1  0
 19 33  1  0
 19 34  1  0
 19 35  1  0
 20 36  1  0
 20 37  1  0
 20 38  1  0
A    1
 C1 
A    2
 C2 
A    3
 C3 
A    4
 C4 
A    5
 C5 
A    6
 C6 
A    7
 C7 
A    8
 C8 
A    9
 C9 
A   10
 C10
A   11
 N1 
A   12
 C11
A   13
 N2 
A   14
 C12
A   15
 O1 
A   16
 O2 
A   17
 C13
A   18
 C14
A   19
 C15
A   20
 C16
A   21
 H1 
A   22
 H2 
A   23
 H3 
A   24
 H4 
A   25
 H5 
A   26
 H6 
A   27
 H7 
A   28
 H8 
A   29
 H9 
A   30
 H10
A   31
 H11
A   32
 H12
A   33
 H13
A   34
 H14
A   35
 H15
A   36
 H16
A   37
 H17
A   38
 H18
M  END
>  <ref_pdb>  (52) 
x0451_0A

>  <ref_mols>  (52) 
x0451_0A,x0554_0A,x0556_0A,x0566_0A,x0310_0A,x0416_0A

>  <original SMILES>  (52) 
Cc1ccc2c(c1)c(C#CN)cn2C(=O)OC(C)(C)C

>  <rationale>  (52) 
info info set:ROCS-BB-0RB;Warhead nanÅ to Cys110:SG; hydroph_interaction:Y89+V124+D109; 

>  <∆∆G>  (52) 
-8.958459

>  <comRMSD>  (52) 
0.749326

>  <ROCS_TanimotoCombo>  (52) 
0.482

>  <ROCS_ShapeTanimoto>  (52) 
0.349

>  <ROCS_ColorTanimoto>  (52) 
0.133

>  <distance>  (52) 
nan

$$$$
Z56867229
     RDKit          3D

 25 25  0  0  0  0  0  0  0  0999 V2000
    6.7910   12.2730   25.9710 C   0  0  0  0  0  0  0  0  0  0  0  0
    7.6590   11.3970   25.1800 C   0  0  0  0  0  0  0  0  0  0  0  0
    7.4500    9.9960   25.1200 C   0  0  0  0  0  0  0  0  0  0  0  0
    8.4730    9.3010   24.2360 C   0  0  0  0  0  0  0  0  0  0  0  0
    9.5590   10.0030   23.5290 C   0  0  0  0  0  0  0  0  0  0  0  0
   10.4370    9.3770   22.7610 C   0  0  0  0  0  0  0  0  0  0  0  0
    9.6480   11.3970   23.6870 C   0  0  0  0  0  0  0  0  0  0  0  0
   10.7090   12.0730   23.0050 N   0  0  0  0  0  0  0  0  0  0  0  0
   10.9550   13.4850   23.3440 C   0  0  0  0  0  0  0  0  0  0  0  0
   10.4540   14.1600   24.2420 O   0  0  0  0  0  0  0  0  0  0  0  0
   11.9490   14.0570   22.4410 C   0  0  0  0  0  0  0  0  0  0  0  0
   11.4410   15.5710   21.6530 Cl  0  0  0  0  0  0  0  0  0  0  0  0
    8.7110   12.0460   24.4960 C   0  0  0  0  0  0  0  0  0  0  0  0
    5.8930   11.7410   26.3000 H   0  0  0  0  0  0  0  0  0  0  0  0
    7.3180   12.6370   26.8590 H   0  0  0  0  0  0  0  0  0  0  0  0
    6.4730   13.1330   25.3740 H   0  0  0  0  0  0  0  0  0  0  0  0
    6.6530    9.4820   25.6400 H   0  0  0  0  0  0  0  0  0  0  0  0
    8.3900    8.2150   24.1270 H   0  0  0  0  0  0  0  0  0  0  0  0
    9.9060    8.8730   21.9540 H   0  0  0  0  0  0  0  0  0  0  0  0
   11.0640    8.6240   23.2170 H   0  0  0  0  0  0  0  0  0  0  0  0
   11.1060   10.1110   22.3230 H   0  0  0  0  0  0  0  0  0  0  0  0
   10.8800   11.8300   22.0240 H   0  0  0  0  0  0  0  0  0  0  0  0
   12.2030   13.3350   21.6610 H   0  0  0  0  0  0  0  0  0  0  0  0
   12.8740   14.2610   22.9930 H   0  0  0  0  0  0  0  0  0  0  0  0
    8.7650   13.1220   24.6220 H   0  0  0  0  0  0  0  0  0  0  0  0
  1  2  1  0
  2  3  2  0
  3  4  1  0
  4  5  2  0
  5  6  1  0
  5  7  1  0
  7  8  1  0
  8  9  1  0
  9 10  2  0
  9 11  1  0
 11 12  1  0
  7 13  2  0
 13  2  1  0
  1 14  1  0
  1 15  1  0
  1 16  1  0
  3 17  1  0
  4 18  1  0
  6 19  1  0
  6 20  1  0
  6 21  1  0
  8 22  1  0
 11 23  1  0
 11 24  1  0
 13 25  1  0
A    1
 C1 
A    2
 C2 
A    3
 C3 
A    4
 C4 
A    5
 C5 
A    6
 C6 
A    7
 C7 
A    8
 N1 
A    9
 C8 
A   10
 O1 
A   11
 C9 
A   12
CL1 
A   13
 C10
A   14
 H1 
A   15
 H2 
A   16
 H3 
A   17
 H4 
A   18
 H5 
A   19
 H6 
A   20
 H7 
A   21
 H8 
A   22
 H9 
A   23
 H10
A   24
 H11
A   25
 H12
M  END
>  <ref_pdb>  (53) 
x0451_0A

>  <ref_mols>  (53) 
x0451_0A,x0554_0A,x0556_0A,x0566_0A,x0310_0A,x0416_0A

>  <original SMILES>  (53) 
Cc1ccc(C)c(NC(=O)CCl)c1

>  <rationale>  (53) 
info info set:ROCS-electro;Warhead 4.345007514377851Å to Cys110:SG; hbond:S125; hydroph_interaction:A110+V124; 

>  <∆∆G>  (53) 
-8.932364

>  <comRMSD>  (53) 
0.339089

>  <ROCS_TanimotoCombo>  (53) 
0.422

>  <ROCS_ShapeTanimoto>  (53) 
0.282

>  <ROCS_ColorTanimoto>  (53) 
0.14

>  <distance>  (53) 
4.345008

$$$$
EN300_12453125
     RDKit          3D

 41 42  0  0  0  0  0  0  0  0999 V2000
   11.7520   14.4990   20.3950 C   0  0  0  0  0  0  0  0  0  0  0  0
   11.2930   14.4900   21.8490 C   0  0  0  0  0  0  0  0  0  0  0  0
   11.2170   15.7730   22.3740 C   0  0  0  0  0  0  0  0  0  0  0  0
   12.3620   13.7250   22.6210 C   0  0  0  0  0  0  0  0  0  0  0  0
   10.2380   13.9440   22.1580 O   0  0  0  0  0  0  0  0  0  0  0  0
    9.9980   13.7140   23.4850 C   0  0  0  0  0  0  0  0  0  0  0  0
   10.2020   14.5360   24.3580 O   0  0  0  0  0  0  0  0  0  0  0  0
    9.5330   12.4590   23.6460 N   0  0  0  0  0  0  0  0  0  0  0  0
   10.3530   11.3770   23.3910 C   0  0  0  0  0  0  0  0  0  0  0  0
   10.1710   10.0110   23.6250 C   0  0  0  0  0  0  0  0  0  0  0  0
   11.1670    9.5330   24.5880 C   0  0  0  0  0  0  0  0  0  0  0  0
   10.3730    9.0850   22.4730 C   0  0  0  0  0  0  0  0  0  0  0  0
    8.8300    9.7210   24.1770 C   0  0  0  0  0  0  0  0  0  0  0  0
    8.3510    8.6130   24.0710 O   0  0  0  0  0  0  0  0  0  0  0  0
    8.1090   10.8540   24.8860 C   0  0  0  0  0  0  0  0  0  0  0  0
    7.1010   10.5610   25.8050 C   0  0  0  0  0  0  0  0  0  0  0  0
    6.4000   11.6650   26.5000 C   0  0  0  0  0  0  0  0  0  0  0  0
    6.7630   12.9810   26.2210 C   0  0  0  0  0  0  0  0  0  0  0  0
    7.7790   13.2610   25.2960 C   0  0  0  0  0  0  0  0  0  0  0  0
    8.4860   12.1760   24.5940 C   0  0  0  0  0  0  0  0  0  0  0  0
   10.9060   14.4080   19.7080 H   0  0  0  0  0  0  0  0  0  0  0  0
   12.4310   13.6800   20.1760 H   0  0  0  0  0  0  0  0  0  0  0  0
   12.2700   15.4360   20.1670 H   0  0  0  0  0  0  0  0  0  0  0  0
   11.9730   16.4690   22.0340 H   0  0  0  0  0  0  0  0  0  0  0  0
   11.2080   15.8870   23.4520 H   0  0  0  0  0  0  0  0  0  0  0  0
   10.2830   16.2300   22.0310 H   0  0  0  0  0  0  0  0  0  0  0  0
   11.9840   13.3450   23.5730 H   0  0  0  0  0  0  0  0  0  0  0  0
   13.1970   14.3850   22.8380 H   0  0  0  0  0  0  0  0  0  0  0  0
   12.7270   12.8620   22.0600 H   0  0  0  0  0  0  0  0  0  0  0  0
   10.7050   11.4560   22.3880 H   0  0  0  0  0  0  0  0  0  0  0  0
   11.2440   11.6510   23.9690 H   0  0  0  0  0  0  0  0  0  0  0  0
   11.3360    8.4890   24.4720 H   0  0  0  0  0  0  0  0  0  0  0  0
   12.1290   10.0490   24.5040 H   0  0  0  0  0  0  0  0  0  0  0  0
   10.7770    9.6830   25.5560 H   0  0  0  0  0  0  0  0  0  0  0  0
   10.9120    8.2050   22.8190 H   0  0  0  0  0  0  0  0  0  0  0  0
    9.4360    8.7290   22.0720 H   0  0  0  0  0  0  0  0  0  0  0  0
   10.9660    9.5290   21.6920 H   0  0  0  0  0  0  0  0  0  0  0  0
    6.8220    9.5360   26.0220 H   0  0  0  0  0  0  0  0  0  0  0  0
    5.6140   11.4490   27.2170 H   0  0  0  0  0  0  0  0  0  0  0  0
    6.2550   13.7990   26.7250 H   0  0  0  0  0  0  0  0  0  0  0  0
    8.0140   14.3050   25.1240 H   0  0  0  0  0  0  0  0  0  0  0  0
  1  2  1  0
  2  3  1  0
  2  4  1  0
  2  5  1  0
  5  6  1  0
  6  7  2  0
  6  8  1  0
  8  9  1  0
  9 10  1  0
 10 11  1  0
 10 12  1  0
 10 13  1  0
 13 14  2  0
 13 15  1  0
 15 16  2  0
 16 17  1  0
 17 18  2  0
 18 19  1  0
 19 20  2  0
 20  8  1  0
 20 15  1  0
  1 21  1  0
  1 22  1  0
  1 23  1  0
  3 24  1  0
  3 25  1  0
  3 26  1  0
  4 27  1  0
  4 28  1  0
  4 29  1  0
  9 30  1  0
  9 31  1  0
 11 32  1  0
 11 33  1  0
 11 34  1  0
 12 35  1  0
 12 36  1  0
 12 37  1  0
 16 38  1  0
 17 39  1  0
 18 40  1  0
 19 41  1  0
A    1
 C1 
A    2
 C2 
A    3
 C3 
A    4
 C4 
A    5
 O1 
A    6
 C5 
A    7
 O2 
A    8
 N1 
A    9
 C6 
A   10
 C7 
A   11
 C8 
A   12
 C9 
A   13
 C10
A   14
 O3 
A   15
 C11
A   16
 C12
A   17
 C13
A   18
 C14
A   19
 C15
A   20
 C16
A   21
 H1 
A   22
 H2 
A   23
 H3 
A   24
 H4 
A   25
 H5 
A   26
 H6 
A   27
 H7 
A   28
 H8 
A   29
 H9 
A   30
 H10
A   31
 H11
A   32
 H12
A   33
 H13
A   34
 H14
A   35
 H15
A   36
 H16
A   37
 H17
A   38
 H18
A   39
 H19
A   40
 H20
A   41
 H21
M  END
>  <ref_pdb>  (54) 
x0451_0A

>  <ref_mols>  (54) 
x0451_0A,x0554_0A,x0556_0A,x0566_0A,x0310_0A,x0416_0A

>  <original SMILES>  (54) 
CC(C)(C)OC(=O)N1CC(C)(C)C(=O)c2ccccc21

>  <rationale>  (54) 
info info set:ROCS-BB-0RB;Warhead nanÅ to Cys110:SG; hydroph_interaction:V124; 

>  <∆∆G>  (54) 
-8.91604

>  <comRMSD>  (54) 
0.556592

>  <ROCS_TanimotoCombo>  (54) 
0.499

>  <ROCS_ShapeTanimoto>  (54) 
0.369

>  <ROCS_ColorTanimoto>  (54) 
0.13

>  <distance>  (54) 
nan

$$$$
Z2378832133
     RDKit          3D

 40 41  0  0  0  0  0  0  0  0999 V2000
    6.4500   10.8510   25.8630 C   0  0  0  0  0  0  0  0  0  0  0  0
    7.7300   10.7810   25.1300 C   0  0  0  0  0  0  0  0  0  0  0  0
    8.1980    9.7620   24.2870 C   0  0  0  0  0  0  0  0  0  0  0  0
    9.4270   10.1460   23.8590 C   0  0  0  0  0  0  0  0  0  0  0  0
   10.3340    9.4030   22.9510 C   0  0  0  0  0  0  0  0  0  0  0  0
    9.6480   11.3690   24.4530 N   0  0  0  0  0  0  0  0  0  0  0  0
   10.7840   12.2790   24.3810 C   0  0  2  0  0  0  0  0  0  0  0  0
   11.4110   12.6910   25.7040 C   0  0  0  0  0  0  0  0  0  0  0  0
   10.4720   13.5210   23.5540 C   0  0  0  0  0  0  0  0  0  0  0  0
    9.8420   14.4820   23.9990 O   0  0  0  0  0  0  0  0  0  0  0  0
   10.9930   13.4790   22.2770 N   0  0  0  0  0  0  0  0  0  0  0  0
   12.3000   12.9110   22.3640 C   0  0  0  0  0  0  0  0  0  0  0  0
   10.8310   14.4580   21.1980 C   0  0  2  0  0  0  0  0  0  0  0  0
   11.8550   15.5820   21.2000 C   0  0  0  0  0  0  0  0  0  0  0  0
   11.0460   16.6550   21.8650 C   0  0  0  0  0  0  0  0  0  0  0  0
    9.7780   16.6000   21.1760 N   0  0  0  0  0  0  0  0  0  0  0  0
    9.4650   15.1820   21.1290 C   0  0  0  0  0  0  0  0  0  0  0  0
    8.6140   11.7670   25.2310 N   0  0  0  0  0  0  0  0  0  0  0  0
    5.9520   11.8080   25.6850 H   0  0  0  0  0  0  0  0  0  0  0  0
    5.7840   10.0390   25.5550 H   0  0  0  0  0  0  0  0  0  0  0  0
    6.6130   10.7520   26.9400 H   0  0  0  0  0  0  0  0  0  0  0  0
    7.7160    8.8580   24.0160 H   0  0  0  0  0  0  0  0  0  0  0  0
   10.9590   10.0940   22.3850 H   0  0  0  0  0  0  0  0  0  0  0  0
   10.9950    8.7500   23.5260 H   0  0  0  0  0  0  0  0  0  0  0  0
    9.7860    8.7990   22.2270 H   0  0  0  0  0  0  0  0  0  0  0  0
   11.5350   11.6780   23.8650 H   0  0  0  0  0  0  0  0  0  0  0  0
   12.2510   12.0500   25.9800 H   0  0  0  0  0  0  0  0  0  0  0  0
   10.6750   12.6850   26.5140 H   0  0  0  0  0  0  0  0  0  0  0  0
   11.8200   13.7050   25.6350 H   0  0  0  0  0  0  0  0  0  0  0  0
   12.7570   13.0180   21.3920 H   0  0  0  0  0  0  0  0  0  0  0  0
   12.2240   11.8610   22.6380 H   0  0  0  0  0  0  0  0  0  0  0  0
   12.9280   13.4050   23.1080 H   0  0  0  0  0  0  0  0  0  0  0  0
   10.9780   13.9310   20.2510 H   0  0  0  0  0  0  0  0  0  0  0  0
   12.7350   15.3630   21.8170 H   0  0  0  0  0  0  0  0  0  0  0  0
   12.1880   15.8390   20.1930 H   0  0  0  0  0  0  0  0  0  0  0  0
   11.4710   17.6450   21.7510 H   0  0  0  0  0  0  0  0  0  0  0  0
   10.9430   16.4350   22.9320 H   0  0  0  0  0  0  0  0  0  0  0  0
    9.0530   17.1170   21.6760 H   0  0  0  0  0  0  0  0  0  0  0  0
    8.9280   14.9570   20.2120 H   0  0  0  0  0  0  0  0  0  0  0  0
    8.8240   14.9010   21.9740 H   0  0  0  0  0  0  0  0  0  0  0  0
  1  2  1  0
  2  3  1  0
  3  4  2  0
  4  5  1  0
  4  6  1  0
  6  7  1  0
  7  8  1  0
  7  9  1  0
  9 10  2  0
  9 11  1  0
 11 12  1  0
 11 13  1  0
 13 14  1  0
 14 15  1  0
 15 16  1  0
 16 17  1  0
  6 18  1  0
 18  2  2  0
 17 13  1  0
  1 19  1  0
  1 20  1  0
  1 21  1  0
  3 22  1  0
  5 23  1  0
  5 24  1  0
  5 25  1  0
  7 26  1  6
  8 27  1  0
  8 28  1  0
  8 29  1  0
 12 30  1  0
 12 31  1  0
 12 32  1  0
 13 33  1  6
 14 34  1  0
 14 35  1  0
 15 36  1  0
 15 37  1  0
 16 38  1  0
 17 39  1  0
 17 40  1  0
A    1
 C1 
A    2
 C2 
A    3
 C3 
A    4
 C4 
A    5
 C5 
A    6
 N1 
A    7
 C6 
A    8
 C7 
A    9
 C8 
A   10
 O1 
A   11
 N2 
A   12
 C9 
A   13
 C10
A   14
 C11
A   15
 C12
A   16
 N3 
A   17
 C13
A   18
 N4 
A   19
 H1 
A   20
 H2 
A   21
 H3 
A   22
 H4 
A   23
 H5 
A   24
 H6 
A   25
 H7 
A   26
 H8 
A   27
 H9 
A   28
 H10
A   29
 H11
A   30
 H12
A   31
 H13
A   32
 H14
A   33
 H15
A   34
 H16
A   35
 H17
A   36
 H18
A   37
 H19
A   38
 H20
A   39
 H21
A   40
 H22
M  END
>  <ref_pdb>  (55) 
x0451_0A

>  <ref_mols>  (55) 
x0451_0A,x0554_0A,x0556_0A,x0566_0A,x0310_0A,x0416_0A

>  <original SMILES>  (55) 
Cc1cc(C)n([C@H](C)C(=O)N(C)[C@@H]2CCNC2)n1

>  <rationale>  (55) 
info info set:ROCS-shape_Q1;Warhead nanÅ to Cys110:SG; hbond:S87; hydroph_interaction:Y90+V124; 

>  <∆∆G>  (55) 
-8.867364

>  <comRMSD>  (55) 
0.625328

>  <ROCS_TanimotoCombo>  (55) 
0.453

>  <ROCS_ShapeTanimoto>  (55) 
0.291

>  <ROCS_ColorTanimoto>  (55) 
0.162

>  <distance>  (55) 
nan

$$$$
Z27634076
     RDKit          3D

 31 32  0  0  0  0  0  0  0  0999 V2000
   10.4850   16.1460   19.0510 C   0  0  0  0  0  0  0  0  0  0  0  0
   10.6420   15.7990   20.5110 C   0  0  0  0  0  0  0  0  0  0  0  0
   10.6230   14.5540   21.0850 C   0  0  0  0  0  0  0  0  0  0  0  0
   10.7950   14.6520   22.4490 C   0  0  0  0  0  0  0  0  0  0  0  0
   10.8260   13.6100   23.3750 C   0  0  0  0  0  0  0  0  0  0  0  0
   11.0290   13.7770   24.5730 O   0  0  0  0  0  0  0  0  0  0  0  0
   10.6040   12.3570   22.8340 N   0  0  0  0  0  0  0  0  0  0  0  0
   10.3350   11.1410   23.5910 C   0  0  1  0  0  0  0  0  0  0  0  0
   11.4570   10.9290   24.6040 C   0  0  0  0  0  0  0  0  0  0  0  0
    9.0230   11.2170   24.3700 C   0  0  0  0  0  0  0  0  0  0  0  0
    8.4870   12.5610   24.8550 C   0  0  0  0  0  0  0  0  0  0  0  0
    7.1890   12.4840   25.6290 C   0  0  0  0  0  0  0  0  0  0  0  0
    6.5310   11.1550   25.8680 C   0  0  0  0  0  0  0  0  0  0  0  0
    7.1030   10.0040   25.3770 C   0  0  0  0  0  0  0  0  0  0  0  0
    8.3060   10.0340   24.6450 C   0  0  0  0  0  0  0  0  0  0  0  0
    8.9180    8.5320   24.0610 Cl  0  0  0  0  0  0  0  0  0  0  0  0
   10.9230   15.9740   22.7320 N   0  0  0  0  0  0  0  0  0  0  0  0
   10.8330   16.6850   21.5270 O   0  0  0  0  0  0  0  0  0  0  0  0
    9.7080   15.5230   18.5990 H   0  0  0  0  0  0  0  0  0  0  0  0
   10.1860   17.1930   18.9200 H   0  0  0  0  0  0  0  0  0  0  0  0
   11.4240   16.0180   18.5050 H   0  0  0  0  0  0  0  0  0  0  0  0
   10.4900   13.6210   20.5540 H   0  0  0  0  0  0  0  0  0  0  0  0
   10.8910   12.2070   21.8710 H   0  0  0  0  0  0  0  0  0  0  0  0
   10.2110   10.3970   22.8060 H   0  0  0  0  0  0  0  0  0  0  0  0
   11.3920    9.9450   25.0840 H   0  0  0  0  0  0  0  0  0  0  0  0
   11.4260   11.6870   25.3910 H   0  0  0  0  0  0  0  0  0  0  0  0
   12.4370   11.0050   24.1240 H   0  0  0  0  0  0  0  0  0  0  0  0
    9.0090   13.5040   24.6580 H   0  0  0  0  0  0  0  0  0  0  0  0
    6.7340   13.4060   26.0170 H   0  0  0  0  0  0  0  0  0  0  0  0
    5.6000   11.1900   26.4400 H   0  0  0  0  0  0  0  0  0  0  0  0
    6.5970    9.0810   25.5750 H   0  0  0  0  0  0  0  0  0  0  0  0
  1  2  1  0
  2  3  2  0
  3  4  1  0
  4  5  1  0
  5  6  2  0
  5  7  1  0
  7  8  1  0
  8  9  1  0
  8 10  1  0
 10 11  2  0
 11 12  1  0
 12 13  2  0
 13 14  1  0
 14 15  2  0
 15 16  1  0
  4 17  2  0
 17 18  1  0
 18  2  1  0
 15 10  1  0
  1 19  1  0
  1 20  1  0
  1 21  1  0
  3 22  1  0
  7 23  1  0
  8 24  1  6
  9 25  1  0
  9 26  1  0
  9 27  1  0
 11 28  1  0
 12 29  1  0
 13 30  1  0
 14 31  1  0
A    1
 C1 
A    2
 C2 
A    3
 C3 
A    4
 C4 
A    5
 C5 
A    6
 O1 
A    7
 N1 
A    8
 C6 
A    9
 C7 
A   10
 C8 
A   11
 C9 
A   12
 C10
A   13
 C11
A   14
 C12
A   15
 C13
A   16
CL1 
A   17
 N2 
A   18
 O2 
A   19
 H1 
A   20
 H2 
A   21
 H3 
A   22
 H4 
A   23
 H5 
A   24
 H6 
A   25
 H7 
A   26
 H8 
A   27
 H9 
A   28
 H10
A   29
 H11
A   30
 H12
A   31
 H13
M  END
>  <ref_pdb>  (56) 
x0451_0A

>  <ref_mols>  (56) 
x0451_0A,x0554_0A,x0556_0A,x0566_0A,x0310_0A,x0416_0A

>  <original SMILES>  (56) 
Cc1cc(C(=O)N[C@@H](C)c2ccccc2Cl)no1

>  <rationale>  (56) 
info info set:ROCS-shape_Q1;Warhead nanÅ to Cys110:SG; hbond:S87+S125; hydroph_interaction:Y90; pistack:H21; 

>  <∆∆G>  (56) 
-8.835895

>  <comRMSD>  (56) 
0.395051

>  <ROCS_TanimotoCombo>  (56) 
0.421

>  <ROCS_ShapeTanimoto>  (56) 
0.295

>  <ROCS_ColorTanimoto>  (56) 
0.126

>  <distance>  (56) 
nan

$$$$
EN300_28294966
     RDKit          3D

 38 39  0  0  0  0  0  0  0  0999 V2000
    8.6350    8.1610   23.7590 C   0  0  0  0  0  0  0  0  0  0  0  0
    8.8810    9.5750   23.8810 N   0  0  0  0  0  0  0  0  0  0  0  0
   10.3080    9.7720   23.9400 C   0  0  0  0  0  0  0  0  0  0  0  0
   10.6590   11.1160   23.3830 C   0  0  0  0  0  0  0  0  0  0  0  0
    9.7210   12.1990   23.6860 N   0  0  0  0  0  0  0  0  0  0  0  0
   10.1830   13.5000   23.4780 C   0  0  0  0  0  0  0  0  0  0  0  0
   10.4100   14.3280   24.3490 O   0  0  0  0  0  0  0  0  0  0  0  0
   10.3790   13.7840   22.1500 O   0  0  0  0  0  0  0  0  0  0  0  0
   11.4510   14.6760   21.7500 C   0  0  0  0  0  0  0  0  0  0  0  0
   12.5010   14.5000   22.6310 C   0  0  0  0  0  0  0  0  0  0  0  0
   11.6390   14.6900   20.4140 C   0  0  0  0  0  0  0  0  0  0  0  0
   10.8630   16.0300   22.1000 C   0  0  0  0  0  0  0  0  0  0  0  0
    8.6290   11.8550   24.5690 C   0  0  0  0  0  0  0  0  0  0  0  0
    8.0600   13.0420   25.3100 C   0  0  0  0  0  0  0  0  0  0  0  0
    6.8850   12.6700   26.2670 C   0  0  0  0  0  0  0  0  0  0  0  0
    6.5660   11.2830   26.2710 C   0  0  0  0  0  0  0  0  0  0  0  0
    5.1460   10.8210   27.4290 Br  0  0  0  0  0  0  0  0  0  0  0  0
    7.1480   10.2370   25.5480 C   0  0  0  0  0  0  0  0  0  0  0  0
    8.1910   10.5240   24.6830 C   0  0  0  0  0  0  0  0  0  0  0  0
    7.8640    7.9350   23.0240 H   0  0  0  0  0  0  0  0  0  0  0  0
    8.4030    7.7100   24.7220 H   0  0  0  0  0  0  0  0  0  0  0  0
    9.5480    7.6880   23.3930 H   0  0  0  0  0  0  0  0  0  0  0  0
   10.7920    9.6950   24.9210 H   0  0  0  0  0  0  0  0  0  0  0  0
   10.7960    9.0220   23.3030 H   0  0  0  0  0  0  0  0  0  0  0  0
   10.6760   11.0200   22.3220 H   0  0  0  0  0  0  0  0  0  0  0  0
   11.6700   11.4040   23.6890 H   0  0  0  0  0  0  0  0  0  0  0  0
   12.1530   14.7660   23.6350 H   0  0  0  0  0  0  0  0  0  0  0  0
   13.3870   15.0910   22.4700 H   0  0  0  0  0  0  0  0  0  0  0  0
   12.8140   13.4530   22.6740 H   0  0  0  0  0  0  0  0  0  0  0  0
   12.0880   15.6360   20.1060 H   0  0  0  0  0  0  0  0  0  0  0  0
   12.2880   13.8710   20.0950 H   0  0  0  0  0  0  0  0  0  0  0  0
   10.6770   14.5930   19.9040 H   0  0  0  0  0  0  0  0  0  0  0  0
    9.8510   16.1370   21.7010 H   0  0  0  0  0  0  0  0  0  0  0  0
   10.8320   16.1790   23.1820 H   0  0  0  0  0  0  0  0  0  0  0  0
   11.4610   16.8290   21.6520 H   0  0  0  0  0  0  0  0  0  0  0  0
    8.4430   14.0620   25.1830 H   0  0  0  0  0  0  0  0  0  0  0  0
    6.3570   13.4080   26.8810 H   0  0  0  0  0  0  0  0  0  0  0  0
    6.8280    9.2140   25.6270 H   0  0  0  0  0  0  0  0  0  0  0  0
  1  2  1  0
  2  3  1  0
  3  4  1  0
  4  5  1  0
  5  6  1  0
  6  7  2  0
  6  8  1  0
  8  9  1  0
  9 10  1  0
  9 11  1  0
  9 12  1  0
  5 13  1  0
 13 14  2  0
 14 15  1  0
 15 16  2  0
 16 17  1  0
 16 18  1  0
 18 19  2  0
 19  2  1  0
 19 13  1  0
  1 20  1  0
  1 21  1  0
  1 22  1  0
  3 23  1  0
  3 24  1  0
  4 25  1  0
  4 26  1  0
 10 27  1  0
 10 28  1  0
 10 29  1  0
 11 30  1  0
 11 31  1  0
 11 32  1  0
 12 33  1  0
 12 34  1  0
 12 35  1  0
 14 36  1  0
 15 37  1  0
 18 38  1  0
A    1
 C1 
A    2
 N1 
A    3
 C2 
A    4
 C3 
A    5
 N2 
A    6
 C4 
A    7
 O1 
A    8
 O2 
A    9
 C5 
A   10
 C6 
A   11
 C7 
A   12
 C8 
A   13
 C9 
A   14
 C10
A   15
 C11
A   16
 C12
A   17
BR1 
A   18
 C13
A   19
 C14
A   20
 H1 
A   21
 H2 
A   22
 H3 
A   23
 H4 
A   24
 H5 
A   25
 H6 
A   26
 H7 
A   27
 H8 
A   28
 H9 
A   29
 H10
A   30
 H11
A   31
 H12
A   32
 H13
A   33
 H14
A   34
 H15
A   35
 H16
A   36
 H17
A   37
 H18
A   38
 H19
M  END
>  <ref_pdb>  (57) 
x0451_0A

>  <ref_mols>  (57) 
x0451_0A,x0554_0A,x0556_0A,x0566_0A,x0310_0A,x0416_0A

>  <original SMILES>  (57) 
CN1CCN(C(=O)OC(C)(C)C)c2ccc(Br)cc21

>  <rationale>  (57) 
info info set:ROCS-BB-0RB;Warhead nanÅ to Cys110:SG; hydroph_interaction:Y89; 

>  <∆∆G>  (57) 
-8.835698

>  <comRMSD>  (57) 
0.492424

>  <ROCS_TanimotoCombo>  (57) 
0.479

>  <ROCS_ShapeTanimoto>  (57) 
0.354

>  <ROCS_ColorTanimoto>  (57) 
0.125

>  <distance>  (57) 
nan

$$$$
Z56862404
     RDKit          3D

 25 25  0  0  0  0  0  0  0  0999 V2000
    6.7810   11.9520   26.0970 C   0  0  0  0  0  0  0  0  0  0  0  0
    7.8550   11.4010   25.1320 C   0  0  0  0  0  0  0  0  0  0  0  0
    7.7080    9.9090   24.8830 C   0  0  0  0  0  0  0  0  0  0  0  0
    8.7920    9.4420   23.9210 C   0  0  0  0  0  0  0  0  0  0  0  0
    8.7270    7.9600   23.5960 C   0  0  0  0  0  0  0  0  0  0  0  0
    9.7570   10.2660   23.3790 C   0  0  0  0  0  0  0  0  0  0  0  0
    9.8020   11.6160   23.6790 C   0  0  0  0  0  0  0  0  0  0  0  0
   10.9280   12.2240   22.9620 N   0  0  0  0  0  0  0  0  0  0  0  0
   11.0290   13.6630   23.2190 C   0  0  0  0  0  0  0  0  0  0  0  0
   10.5320   14.3000   24.1480 O   0  0  0  0  0  0  0  0  0  0  0  0
   11.8860   14.3590   22.1650 C   0  0  0  0  0  0  0  0  0  0  0  0
   10.9890   15.5260   21.1660 Cl  0  0  0  0  0  0  0  0  0  0  0  0
    8.8650   12.1900   24.5410 C   0  0  0  0  0  0  0  0  0  0  0  0
    7.2700   12.3670   26.9870 H   0  0  0  0  0  0  0  0  0  0  0  0
    6.2130   12.7610   25.6200 H   0  0  0  0  0  0  0  0  0  0  0  0
    6.0710   11.1640   26.3670 H   0  0  0  0  0  0  0  0  0  0  0  0
    6.9550    9.2600   25.3120 H   0  0  0  0  0  0  0  0  0  0  0  0
    9.6260    7.5250   23.1690 H   0  0  0  0  0  0  0  0  0  0  0  0
    7.9290    7.7840   22.8730 H   0  0  0  0  0  0  0  0  0  0  0  0
    8.5100    7.3680   24.4870 H   0  0  0  0  0  0  0  0  0  0  0  0
   10.4900    9.8320   22.7030 H   0  0  0  0  0  0  0  0  0  0  0  0
   11.0650   11.9290   21.9930 H   0  0  0  0  0  0  0  0  0  0  0  0
   12.3230   13.6150   21.4870 H   0  0  0  0  0  0  0  0  0  0  0  0
   12.6940   14.8980   22.6560 H   0  0  0  0  0  0  0  0  0  0  0  0
    8.8900   13.2610   24.7800 H   0  0  0  0  0  0  0  0  0  0  0  0
  1  2  1  0
  2  3  2  0
  3  4  1  0
  4  5  1  0
  4  6  2  0
  6  7  1  0
  7  8  1  0
  8  9  1  0
  9 10  2  0
  9 11  1  0
 11 12  1  0
  7 13  2  0
 13  2  1  0
  1 14  1  0
  1 15  1  0
  1 16  1  0
  3 17  1  0
  5 18  1  0
  5 19  1  0
  5 20  1  0
  6 21  1  0
  8 22  1  0
 11 23  1  0
 11 24  1  0
 13 25  1  0
A    1
 C1 
A    2
 C2 
A    3
 C3 
A    4
 C4 
A    5
 C5 
A    6
 C6 
A    7
 C7 
A    8
 N1 
A    9
 C8 
A   10
 O1 
A   11
 C9 
A   12
CL1 
A   13
 C10
A   14
 H1 
A   15
 H2 
A   16
 H3 
A   17
 H4 
A   18
 H5 
A   19
 H6 
A   20
 H7 
A   21
 H8 
A   22
 H9 
A   23
 H10
A   24
 H11
A   25
 H12
M  END
>  <ref_pdb>  (58) 
x0451_0A

>  <ref_mols>  (58) 
x0451_0A,x0554_0A,x0556_0A,x0566_0A,x0310_0A,x0416_0A

>  <original SMILES>  (58) 
Cc1cc(C)cc(NC(=O)CCl)c1

>  <rationale>  (58) 
info info set:ROCS-electro;Warhead 4.359201189438266Å to Cys110:SG; hbond:S125; hydroph_interaction:V124+D109; 

>  <∆∆G>  (58) 
-8.823755

>  <comRMSD>  (58) 
0.431153

>  <ROCS_TanimotoCombo>  (58) 
0.421

>  <ROCS_ShapeTanimoto>  (58) 
0.281

>  <ROCS_ColorTanimoto>  (58) 
0.14

>  <distance>  (58) 
4.359201

$$$$
EN300_28297367
     RDKit          3D

 40 41  0  0  0  0  0  0  0  0999 V2000
    5.0400   11.2050   27.5210 C   0  0  0  0  0  0  0  0  0  0  0  0
    6.1830   11.6360   26.6320 C   0  0  0  0  0  0  0  0  0  0  0  0
    6.7610   10.4960   25.8620 C   0  0  0  0  0  0  0  0  0  0  0  0
    7.9350   10.6140   24.8700 C   0  0  0  0  0  0  0  0  0  0  0  0
    8.4940   12.0230   24.7200 C   0  0  0  0  0  0  0  0  0  0  0  0
    7.7540   13.0830   25.6120 C   0  0  0  0  0  0  0  0  0  0  0  0
    6.7010   12.9120   26.4850 C   0  0  0  0  0  0  0  0  0  0  0  0
    6.0410   14.4280   27.4190 Br  0  0  0  0  0  0  0  0  0  0  0  0
    9.5230   12.1560   23.8650 N   0  0  0  0  0  0  0  0  0  0  0  0
   10.0930   13.3960   23.5590 C   0  0  0  0  0  0  0  0  0  0  0  0
   10.4640   14.1670   24.4440 O   0  0  0  0  0  0  0  0  0  0  0  0
   10.2250   13.7140   22.2440 O   0  0  0  0  0  0  0  0  0  0  0  0
   11.4690   14.2820   21.8550 C   0  0  0  0  0  0  0  0  0  0  0  0
   11.6750   14.3140   20.4080 C   0  0  0  0  0  0  0  0  0  0  0  0
   12.4590   13.5360   22.6720 C   0  0  0  0  0  0  0  0  0  0  0  0
   11.4820   15.6160   22.2010 C   0  0  0  0  0  0  0  0  0  0  0  0
   10.3240   11.0330   23.5260 C   0  0  0  0  0  0  0  0  0  0  0  0
    9.8260    9.7300   23.8750 C   0  0  2  0  0  0  0  0  0  0  0  0
   10.0110    8.6810   22.8190 C   0  0  0  0  0  0  0  0  0  0  0  0
    8.4280    9.5670   24.1950 O   0  0  0  0  0  0  0  0  0  0  0  0
    4.9460   10.1120   27.5220 H   0  0  0  0  0  0  0  0  0  0  0  0
    4.0900   11.6050   27.1520 H   0  0  0  0  0  0  0  0  0  0  0  0
    5.1960   11.5430   28.5480 H   0  0  0  0  0  0  0  0  0  0  0  0
    6.3120    9.5210   26.0220 H   0  0  0  0  0  0  0  0  0  0  0  0
    8.1760   14.0820   25.4820 H   0  0  0  0  0  0  0  0  0  0  0  0
   10.8300   14.0900   19.7630 H   0  0  0  0  0  0  0  0  0  0  0  0
   12.4810   13.6430   20.1200 H   0  0  0  0  0  0  0  0  0  0  0  0
   12.0310   15.3150   20.1390 H   0  0  0  0  0  0  0  0  0  0  0  0
   12.8970   12.7110   22.1080 H   0  0  0  0  0  0  0  0  0  0  0  0
   13.2390   14.2070   23.0340 H   0  0  0  0  0  0  0  0  0  0  0  0
   12.0130   13.0930   23.5660 H   0  0  0  0  0  0  0  0  0  0  0  0
   10.7300   16.1760   21.6350 H   0  0  0  0  0  0  0  0  0  0  0  0
   12.4560   16.0500   21.9630 H   0  0  0  0  0  0  0  0  0  0  0  0
   11.2820   15.7710   23.2640 H   0  0  0  0  0  0  0  0  0  0  0  0
   11.2690   11.1360   24.0730 H   0  0  0  0  0  0  0  0  0  0  0  0
   10.6090   11.2090   22.4960 H   0  0  0  0  0  0  0  0  0  0  0  0
   10.3690    9.4130   24.7750 H   0  0  0  0  0  0  0  0  0  0  0  0
   10.2820    9.1240   21.8570 H   0  0  0  0  0  0  0  0  0  0  0  0
    9.0990    8.0910   22.6880 H   0  0  0  0  0  0  0  0  0  0  0  0
   10.8070    7.9970   23.1040 H   0  0  0  0  0  0  0  0  0  0  0  0
  1  2  1  0
  2  3  2  0
  3  4  1  0
  4  5  2  0
  5  6  1  0
  6  7  2  0
  7  8  1  0
  5  9  1  0
  9 10  1  0
 10 11  2  0
 10 12  1  0
 12 13  1  0
 13 14  1  0
 13 15  1  0
 13 16  1  0
  9 17  1  0
 17 18  1  0
 18 19  1  0
 18 20  1  0
  7  2  1  0
 20  4  1  0
  1 21  1  0
  1 22  1  0
  1 23  1  0
  3 24  1  0
  6 25  1  0
 14 26  1  0
 14 27  1  0
 14 28  1  0
 15 29  1  0
 15 30  1  0
 15 31  1  0
 16 32  1  0
 16 33  1  0
 16 34  1  0
 17 35  1  0
 17 36  1  0
 18 37  1  1
 19 38  1  0
 19 39  1  0
 19 40  1  0
A    1
 C1 
A    2
 C2 
A    3
 C3 
A    4
 C4 
A    5
 C5 
A    6
 C6 
A    7
 C7 
A    8
BR1 
A    9
 N1 
A   10
 C8 
A   11
 O1 
A   12
 O2 
A   13
 C9 
A   14
 C10
A   15
 C11
A   16
 C12
A   17
 C13
A   18
 C14
A   19
 C15
A   20
 O3 
A   21
 H1 
A   22
 H2 
A   23
 H3 
A   24
 H4 
A   25
 H5 
A   26
 H6 
A   27
 H7 
A   28
 H8 
A   29
 H9 
A   30
 H10
A   31
 H11
A   32
 H12
A   33
 H13
A   34
 H14
A   35
 H15
A   36
 H16
A   37
 H17
A   38
 H18
A   39
 H19
A   40
 H20
M  END
>  <ref_pdb>  (59) 
x0451_0A

>  <ref_mols>  (59) 
x0451_0A,x0554_0A,x0556_0A,x0566_0A,x0310_0A,x0416_0A

>  <original SMILES>  (59) 
Cc1cc2c(cc1Br)N(C(=O)OC(C)(C)C)C[C@H](C)O2

>  <rationale>  (59) 
info info set:ROCS-BB-0RB;Warhead nanÅ to Cys110:SG; hydroph_interaction:V124+D109; 

>  <∆∆G>  (59) 
-8.781399

>  <comRMSD>  (59) 
0.44313

>  <ROCS_TanimotoCombo>  (59) 
0.514

>  <ROCS_ShapeTanimoto>  (59) 
0.36

>  <ROCS_ColorTanimoto>  (59) 
0.154

>  <distance>  (59) 
nan

$$$$
EN300_1129078
     RDKit          3D

 52 54  0  0  0  0  0  0  0  0999 V2000
    5.1950   13.6280   29.5020 C   0  0  0  0  0  0  0  0  0  0  0  0
    6.0500   13.3800   28.3940 O   0  0  0  0  0  0  0  0  0  0  0  0
    5.5290   12.6650   27.3560 C   0  0  0  0  0  0  0  0  0  0  0  0
    4.3160   12.5700   27.1970 O   0  0  0  0  0  0  0  0  0  0  0  0
    6.3810   12.0080   26.4660 C   0  0  0  0  0  0  0  0  0  0  0  0
    6.3960   10.6250   26.4940 C   0  0  0  0  0  0  0  0  0  0  0  0
    7.2000    9.6370   25.6710 C   0  0  0  0  0  0  0  0  0  0  0  0
    7.9860   10.5550   24.7980 C   0  0  0  0  0  0  0  0  0  0  0  0
    7.9960   11.9270   24.7470 C   0  0  0  0  0  0  0  0  0  0  0  0
    7.1960   12.6600   25.5800 C   0  0  0  0  0  0  0  0  0  0  0  0
    8.8030   12.5940   23.8680 O   0  0  0  0  0  0  0  0  0  0  0  0
   10.1190   12.0030   23.7060 C   0  0  2  0  0  0  0  0  0  0  0  0
   10.9050   12.3470   24.9500 C   0  0  0  0  0  0  0  0  0  0  0  0
   11.6540   13.6530   24.7700 C   0  0  0  0  0  0  0  0  0  0  0  0
   11.4810   13.8900   23.3580 N   0  0  0  0  0  0  0  0  0  0  0  0
   11.1760   15.1140   22.6830 C   0  0  0  0  0  0  0  0  0  0  0  0
   11.2560   16.1930   23.2100 O   0  0  0  0  0  0  0  0  0  0  0  0
   10.8040   14.8500   21.4010 O   0  0  0  0  0  0  0  0  0  0  0  0
   11.6640   15.3080   20.3620 C   0  0  0  0  0  0  0  0  0  0  0  0
   10.9710   16.4920   19.7180 C   0  0  0  0  0  0  0  0  0  0  0  0
   12.8450   15.6480   21.2390 C   0  0  0  0  0  0  0  0  0  0  0  0
   12.0540   14.2960   19.3060 C   0  0  0  0  0  0  0  0  0  0  0  0
   11.0090   12.7400   22.7070 C   0  0  0  0  0  0  0  0  0  0  0  0
   10.1410   10.5070   23.4460 C   0  0  0  0  0  0  0  0  0  0  0  0
    8.8720    9.8020   23.8540 C   0  0  1  0  0  0  0  0  0  0  0  0
    9.2820    8.5000   24.3190 N   0  0  0  0  0  0  0  0  0  0  0  0
    5.8250   13.8920   30.3560 H   0  0  0  0  0  0  0  0  0  0  0  0
    4.6260   12.7330   29.7700 H   0  0  0  0  0  0  0  0  0  0  0  0
    4.5310   14.4760   29.3020 H   0  0  0  0  0  0  0  0  0  0  0  0
    5.7270   10.1630   27.2200 H   0  0  0  0  0  0  0  0  0  0  0  0
    7.2450    8.5850   25.6640 H   0  0  0  0  0  0  0  0  0  0  0  0
    7.2870   13.7450   25.4540 H   0  0  0  0  0  0  0  0  0  0  0  0
   10.2590   12.4190   25.8320 H   0  0  0  0  0  0  0  0  0  0  0  0
   11.6220   11.5400   25.1420 H   0  0  0  0  0  0  0  0  0  0  0  0
   12.7110   13.5860   25.0420 H   0  0  0  0  0  0  0  0  0  0  0  0
   11.1770   14.4640   25.3300 H   0  0  0  0  0  0  0  0  0  0  0  0
   10.9070   17.3420   20.4020 H   0  0  0  0  0  0  0  0  0  0  0  0
   11.4430   16.7790   18.7760 H   0  0  0  0  0  0  0  0  0  0  0  0
    9.9350   16.2430   19.4710 H   0  0  0  0  0  0  0  0  0  0  0  0
   12.5160   16.3960   21.9360 H   0  0  0  0  0  0  0  0  0  0  0  0
   13.6790   16.0560   20.6880 H   0  0  0  0  0  0  0  0  0  0  0  0
   13.1680   14.7900   21.8220 H   0  0  0  0  0  0  0  0  0  0  0  0
   12.6270   14.7590   18.5040 H   0  0  0  0  0  0  0  0  0  0  0  0
   12.6670   13.5060   19.7210 H   0  0  0  0  0  0  0  0  0  0  0  0
   11.1650   13.8500   18.8560 H   0  0  0  0  0  0  0  0  0  0  0  0
   11.9030   12.1580   22.4580 H   0  0  0  0  0  0  0  0  0  0  0  0
   10.5130   13.0750   21.8060 H   0  0  0  0  0  0  0  0  0  0  0  0
   10.3230   10.3380   22.3800 H   0  0  0  0  0  0  0  0  0  0  0  0
   10.9880   10.0480   23.9720 H   0  0  0  0  0  0  0  0  0  0  0  0
    8.2850    9.5980   22.9870 H   0  0  0  0  0  0  0  0  0  0  0  0
    9.7170    8.5680   25.2410 H   0  0  0  0  0  0  0  0  0  0  0  0
    8.4600    7.9110   24.4360 H   0  0  0  0  0  0  0  0  0  0  0  0
  1  2  1  0
  2  3  1  0
  3  4  2  0
  3  5  1  0
  5  6  2  0
  6  7  1  0
  7  8  2  0
  8  9  1  0
  9 10  2  0
  9 11  1  0
 12 11  1  1
 12 13  1  0
 13 14  1  0
 14 15  1  0
 15 16  1  0
 16 17  2  0
 16 18  1  0
 18 19  1  0
 19 20  1  0
 19 21  1  0
 19 22  1  0
 15 23  1  0
 12 24  1  0
 24 25  1  0
 25 26  1  0
 10  5  1  0
 23 12  1  0
 25  8  1  0
  1 27  1  0
  1 28  1  0
  1 29  1  0
  6 30  1  0
  7 31  1  0
 10 32  1  0
 13 33  1  0
 13 34  1  0
 14 35  1  0
 14 36  1  0
 20 37  1  0
 20 38  1  0
 20 39  1  0
 21 40  1  0
 21 41  1  0
 21 42  1  0
 22 43  1  0
 22 44  1  0
 22 45  1  0
 23 46  1  0
 23 47  1  0
 24 48  1  0
 24 49  1  0
 25 50  1  6
 26 51  1  0
 26 52  1  0
A    1
 C1 
A    2
 O1 
A    3
 C2 
A    4
 O2 
A    5
 C3 
A    6
 C4 
A    7
 C5 
A    8
 C6 
A    9
 C7 
A   10
 C8 
A   11
 O3 
A   12
 C9 
A   13
 C10
A   14
 C11
A   15
 N1 
A   16
 C12
A   17
 O4 
A   18
 O5 
A   19
 C13
A   20
 C14
A   21
 C15
A   22
 C16
A   23
 C17
A   24
 C18
A   25
 C19
A   26
 N2 
A   27
 H1 
A   28
 H2 
A   29
 H3 
A   30
 H4 
A   31
 H5 
A   32
 H6 
A   33
 H7 
A   34
 H8 
A   35
 H9 
A   36
 H10
A   37
 H11
A   38
 H12
A   39
 H13
A   40
 H14
A   41
 H15
A   42
 H16
A   43
 H17
A   44
 H18
A   45
 H19
A   46
 H20
A   47
 H21
A   48
 H22
A   49
 H23
A   50
 H24
A   51
 H25
A   52
 H26
M  END
>  <ref_pdb>  (60) 
x0451_0A

>  <ref_mols>  (60) 
x0451_0A,x0554_0A,x0556_0A,x0566_0A,x0310_0A,x0416_0A

>  <original SMILES>  (60) 
COC(=O)c1ccc2c(c1)O[C@@]1(CCN(C(=O)OC(C)(C)C)C1)C[C@H]2N

>  <rationale>  (60) 
info info set:ROCS-BB-1RB;Warhead nanÅ to Cys110:SG; hbond:S87+G127; hydroph_interaction:Y89; 

>  <∆∆G>  (60) 
-8.759452

>  <comRMSD>  (60) 
0.847917

>  <ROCS_TanimotoCombo>  (60) 
0.527

>  <ROCS_ShapeTanimoto>  (60) 
0.393

>  <ROCS_ColorTanimoto>  (60) 
0.134

>  <distance>  (60) 
nan

$$$$
Z56948417
     RDKit          3D

 24 24  0  0  0  0  0  0  0  0999 V2000
   10.1890    9.2420   23.1490 C   0  0  0  0  0  0  0  0  0  0  0  0
    9.2790   10.2120   23.8750 C   0  0  0  0  0  0  0  0  0  0  0  0
    8.1670    9.5100   24.6580 C   0  0  0  0  0  0  0  0  0  0  0  0
    7.2420   10.5140   25.3860 C   0  0  0  0  0  0  0  0  0  0  0  0
    5.8810    9.9230   26.3560 S   0  0  0  0  0  0  0  0  0  0  0  0
    5.1600   11.3870   26.7770 C   0  0  0  0  0  0  0  0  0  0  0  0
    4.6400   12.3820   27.0700 N   0  0  0  0  0  0  0  0  0  0  0  0
    7.4130   11.8890   25.3260 C   0  0  0  0  0  0  0  0  0  0  0  0
    8.4430   12.4590   24.6040 C   0  0  0  0  0  0  0  0  0  0  0  0
    9.4230   11.6050   23.8470 C   0  0  0  0  0  0  0  0  0  0  0  0
   10.4750   12.2050   23.1280 N   0  0  0  0  0  0  0  0  0  0  0  0
   11.0060   13.4410   23.3960 C   0  0  0  0  0  0  0  0  0  0  0  0
   10.5720   14.2400   24.2230 O   0  0  0  0  0  0  0  0  0  0  0  0
   12.2290   13.8090   22.5890 C   0  0  0  0  0  0  0  0  0  0  0  0
   12.0550   15.3600   21.7430 Cl  0  0  0  0  0  0  0  0  0  0  0  0
   10.7500    9.7420   22.3510 H   0  0  0  0  0  0  0  0  0  0  0  0
   10.9060    8.7950   23.8420 H   0  0  0  0  0  0  0  0  0  0  0  0
    9.6090    8.4370   22.6880 H   0  0  0  0  0  0  0  0  0  0  0  0
    8.1240    8.4340   24.6400 H   0  0  0  0  0  0  0  0  0  0  0  0
    6.7310   12.5520   25.8540 H   0  0  0  0  0  0  0  0  0  0  0  0
    8.5100   13.5430   24.6110 H   0  0  0  0  0  0  0  0  0  0  0  0
   10.6810   11.8570   22.1820 H   0  0  0  0  0  0  0  0  0  0  0  0
   13.0770   13.8910   23.2720 H   0  0  0  0  0  0  0  0  0  0  0  0
   12.4210   13.0350   21.8450 H   0  0  0  0  0  0  0  0  0  0  0  0
  1  2  1  0
  2  3  2  0
  3  4  1  0
  4  5  1  0
  5  6  1  0
  6  7  3  0
  4  8  2  0
  8  9  1  0
  9 10  2  0
 10 11  1  0
 11 12  1  0
 12 13  2  0
 12 14  1  0
 14 15  1  0
 10  2  1  0
  1 16  1  0
  1 17  1  0
  1 18  1  0
  3 19  1  0
  8 20  1  0
  9 21  1  0
 11 22  1  0
 14 23  1  0
 14 24  1  0
A    1
 C1 
A    2
 C2 
A    3
 C3 
A    4
 C4 
A    5
 S1 
A    6
 C5 
A    7
 N1 
A    8
 C6 
A    9
 C7 
A   10
 C8 
A   11
 N2 
A   12
 C9 
A   13
 O1 
A   14
 C10
A   15
CL1 
A   16
 H1 
A   17
 H2 
A   18
 H3 
A   19
 H4 
A   20
 H5 
A   21
 H6 
A   22
 H7 
A   23
 H8 
A   24
 H9 
M  END
>  <ref_pdb>  (61) 
x0451_0A

>  <ref_mols>  (61) 
x0451_0A,x0554_0A,x0556_0A,x0566_0A,x0310_0A,x0416_0A

>  <original SMILES>  (61) 
Cc1cc(SC#N)ccc1NC(=O)CCl

>  <rationale>  (61) 
info info set:ROCS-electro;Warhead 4.033754553762536Å to Cys110:SG; hbond:S125; hydroph_interaction:V124; 

>  <∆∆G>  (61) 
-8.740614

>  <comRMSD>  (61) 
0.47885

>  <ROCS_TanimotoCombo>  (61) 
0.442

>  <ROCS_ShapeTanimoto>  (61) 
0.289

>  <ROCS_ColorTanimoto>  (61) 
0.153

>  <distance>  (61) 
4.033755

$$$$
Z1088501896
     RDKit          3D

 44 46  0  0  0  0  0  0  0  0999 V2000
   12.2500   14.8980   20.1480 C   0  0  0  0  0  0  0  0  0  0  0  0
   12.1260   14.9450   21.6590 C   0  0  0  0  0  0  0  0  0  0  0  0
   11.0640   15.9460   22.0640 C   0  0  0  0  0  0  0  0  0  0  0  0
   11.8210   13.7080   22.2010 N   0  0  0  0  0  0  0  0  0  0  0  0
   10.8540   13.5160   23.2750 C   0  0  0  0  0  0  0  0  0  0  0  0
   10.5760   14.3850   24.1160 O   0  0  0  0  0  0  0  0  0  0  0  0
   10.3490   12.1760   23.1160 N   0  0  0  0  0  0  0  0  0  0  0  0
    9.3990   11.4620   23.8170 C   0  0  0  0  0  0  0  0  0  0  0  0
    8.3530   11.8760   24.7280 C   0  0  0  0  0  0  0  0  0  0  0  0
    7.6430   10.7750   25.1770 C   0  0  0  0  0  0  0  0  0  0  0  0
    6.5630   10.7530   26.0520 C   0  0  0  0  0  0  0  0  0  0  0  0
    6.2750   11.7840   26.9050 C   0  0  0  0  0  0  0  0  0  0  0  0
    5.0470   11.5000   27.7500 C   0  0  0  0  0  0  0  0  0  0  0  0
    4.4610   12.4490   28.8010 C   0  0  0  0  0  0  0  0  0  0  0  0
    3.2960   11.5230   29.2070 C   0  0  0  0  0  0  0  0  0  0  0  0
    2.9340   10.1690   28.7000 C   0  0  0  0  0  0  0  0  0  0  0  0
    3.6270    9.4950   27.7320 C   0  0  0  0  0  0  0  0  0  0  0  0
    4.7790   10.2550   27.2300 C   0  0  0  0  0  0  0  0  0  0  0  0
    5.6940    9.8880   26.2530 O   0  0  0  0  0  0  0  0  0  0  0  0
    8.1880    9.6910   24.5960 N   0  0  0  0  0  0  0  0  0  0  0  0
    9.2080   10.1130   23.8050 N   0  0  0  0  0  0  0  0  0  0  0  0
    9.9330    9.1100   23.0780 C   0  0  0  0  0  0  0  0  0  0  0  0
    9.2380    7.9190   23.2140 C   0  0  0  0  0  0  0  0  0  0  0  0
    8.2580    7.6190   22.5790 O   0  0  0  0  0  0  0  0  0  0  0  0
   12.2440   13.8620   19.7940 H   0  0  0  0  0  0  0  0  0  0  0  0
   11.3850   15.3900   19.6880 H   0  0  0  0  0  0  0  0  0  0  0  0
   13.1620   15.3800   19.8200 H   0  0  0  0  0  0  0  0  0  0  0  0
   13.0670   15.3160   22.0770 H   0  0  0  0  0  0  0  0  0  0  0  0
   11.1370   16.1560   23.1350 H   0  0  0  0  0  0  0  0  0  0  0  0
   10.0580   15.5400   21.9020 H   0  0  0  0  0  0  0  0  0  0  0  0
   11.1470   16.8910   21.5230 H   0  0  0  0  0  0  0  0  0  0  0  0
   11.8040   12.9500   21.5200 H   0  0  0  0  0  0  0  0  0  0  0  0
   10.6570   11.7800   22.2250 H   0  0  0  0  0  0  0  0  0  0  0  0
    8.0320   12.8490   25.1120 H   0  0  0  0  0  0  0  0  0  0  0  0
    6.8600   12.7040   26.9710 H   0  0  0  0  0  0  0  0  0  0  0  0
    4.7800   13.4330   29.1240 H   0  0  0  0  0  0  0  0  0  0  0  0
    2.6460   11.9380   29.9880 H   0  0  0  0  0  0  0  0  0  0  0  0
    2.0570    9.6760   29.1280 H   0  0  0  0  0  0  0  0  0  0  0  0
    3.3860    8.5080   27.3450 H   0  0  0  0  0  0  0  0  0  0  0  0
   10.9680    9.1470   23.4260 H   0  0  0  0  0  0  0  0  0  0  0  0
    9.9710    9.4040   22.0270 H   0  0  0  0  0  0  0  0  0  0  0  0
    9.9240    7.1110   23.0770 H   0  0  0  0  0  0  0  0  0  0  0  0
    8.9180    7.8380   24.2570 H   0  0  0  0  0  0  0  0  0  0  0  0
    7.4980    7.8180   23.1470 H   0  0  0  0  0  0  0  0  0  0  0  0
  1  2  1  0
  2  3  1  0
  2  4  1  0
  4  5  1  0
  5  6  2  0
  5  7  1  0
  7  8  1  0
  8  9  2  0
  9 10  1  0
 10 11  1  0
 11 12  2  0
 12 13  1  0
 13 14  2  0
 14 15  1  0
 15 16  2  0
 16 17  1  0
 17 18  2  0
 18 19  1  0
 10 20  2  0
 20 21  1  0
 21 22  1  0
 22 23  1  0
 23 24  1  0
 21  8  1  0
 19 11  1  0
 18 13  1  0
  1 25  1  0
  1 26  1  0
  1 27  1  0
  2 28  1  0
  3 29  1  0
  3 30  1  0
  3 31  1  0
  4 32  1  0
  7 33  1  0
  9 34  1  0
 12 35  1  0
 14 36  1  0
 15 37  1  0
 16 38  1  0
 17 39  1  0
 22 40  1  0
 22 41  1  0
 23 42  1  0
 23 43  1  0
 24 44  1  0
A    1
 C1 
A    2
 C2 
A    3
 C3 
A    4
 N1 
A    5
 C4 
A    6
 O1 
A    7
 N2 
A    8
 C5 
A    9
 C6 
A   10
 C7 
A   11
 C8 
A   12
 C9 
A   13
 C10
A   14
 C11
A   15
 C12
A   16
 C13
A   17
 C14
A   18
 C15
A   19
 O2 
A   20
 N3 
A   21
 N4 
A   22
 C16
A   23
 C17
A   24
 O3 
A   25
 H1 
A   26
 H2 
A   27
 H3 
A   28
 H4 
A   29
 H5 
A   30
 H6 
A   31
 H7 
A   32
 H8 
A   33
 H9 
A   34
 H10
A   35
 H11
A   36
 H12
A   37
 H13
A   38
 H14
A   39
 H15
A   40
 H16
A   41
 H17
A   42
 H18
A   43
 H19
A   44
 H20
M  END
>  <ref_pdb>  (62) 
x0451_0A

>  <ref_mols>  (62) 
x0451_0A,x0554_0A,x0556_0A,x0566_0A,x0310_0A,x0416_0A

>  <original SMILES>  (62) 
CC(C)NC(=O)Nc1cc(-c2cc3ccccc3o2)nn1CCO

>  <rationale>  (62) 
info info set:ROCS-PPI;Warhead nanÅ to Cys110:SG; hbond:S125; hydroph_interaction:Y89+Y90; 

>  <∆∆G>  (62) 
-8.725189

>  <comRMSD>  (62) 
0.443627

>  <ROCS_TanimotoCombo>  (62) 
0.524

>  <ROCS_ShapeTanimoto>  (62) 
0.335

>  <ROCS_ColorTanimoto>  (62) 
0.189

>  <distance>  (62) 
nan

$$$$
Z45545198
     RDKit          3D

 32 32  0  0  0  0  0  0  0  0999 V2000
   12.2920   15.3980   20.5700 C   0  0  0  0  0  0  0  0  0  0  0  0
   11.0330   15.8810   21.2800 C   0  0  0  0  0  0  0  0  0  0  0  0
   10.1560   14.7150   21.6000 C   0  0  0  0  0  0  0  0  0  0  0  0
   10.9870   13.5850   21.9860 N   0  0  0  0  0  0  0  0  0  0  0  0
   11.2960   13.2670   23.5950 S   0  0  0  0  0  6  0  0  0  0  0  0
   11.0880   14.4930   24.3340 O   0  0  0  0  0  0  0  0  0  0  0  0
   12.5200   12.5070   23.7010 O   0  0  0  0  0  0  0  0  0  0  0  0
    9.9870   12.1870   24.0540 C   0  0  0  0  0  0  0  0  0  0  0  0
    8.9080   12.7100   24.7380 C   0  0  0  0  0  0  0  0  0  0  0  0
    7.9250   11.8610   25.1230 C   0  0  0  0  0  0  0  0  0  0  0  0
    7.7610   10.4800   24.9590 C   0  0  0  0  0  0  0  0  0  0  0  0
    6.5410    9.8510   25.5620 C   0  0  0  0  0  0  0  0  0  0  0  0
    8.8760    9.9350   24.2110 C   0  0  0  0  0  0  0  0  0  0  0  0
    8.9430    8.4680   23.8720 C   0  0  0  0  0  0  0  0  0  0  0  0
    9.9590   10.6900   23.7590 C   0  0  0  0  0  0  0  0  0  0  0  0
   13.1840   15.8810   20.9870 H   0  0  0  0  0  0  0  0  0  0  0  0
   12.3980   14.3180   20.6690 H   0  0  0  0  0  0  0  0  0  0  0  0
   12.2320   15.6410   19.5030 H   0  0  0  0  0  0  0  0  0  0  0  0
   10.4950   16.6030   20.6630 H   0  0  0  0  0  0  0  0  0  0  0  0
   11.3440   16.3750   22.2080 H   0  0  0  0  0  0  0  0  0  0  0  0
    9.5540   14.4730   20.7180 H   0  0  0  0  0  0  0  0  0  0  0  0
    9.4600   14.9760   22.4050 H   0  0  0  0  0  0  0  0  0  0  0  0
   11.0720   12.7700   21.3740 H   0  0  0  0  0  0  0  0  0  0  0  0
    8.8430   13.7690   24.9780 H   0  0  0  0  0  0  0  0  0  0  0  0
    7.1230   12.3520   25.6670 H   0  0  0  0  0  0  0  0  0  0  0  0
    6.8420    9.0550   26.2080 H   0  0  0  0  0  0  0  0  0  0  0  0
    5.8670    9.4770   24.8390 H   0  0  0  0  0  0  0  0  0  0  0  0
    5.9840   10.5880   26.1460 H   0  0  0  0  0  0  0  0  0  0  0  0
    8.6520    7.8430   24.7150 H   0  0  0  0  0  0  0  0  0  0  0  0
    9.9640    8.1980   23.5870 H   0  0  0  0  0  0  0  0  0  0  0  0
    8.2680    8.2390   23.0420 H   0  0  0  0  0  0  0  0  0  0  0  0
   10.7740   10.2160   23.2090 H   0  0  0  0  0  0  0  0  0  0  0  0
  1  2  1  0
  2  3  1  0
  3  4  1  0
  4  5  1  0
  5  6  2  0
  5  7  2  0
  5  8  1  0
  8  9  2  0
  9 10  1  0
 10 11  2  0
 11 12  1  0
 11 13  1  0
 13 14  1  0
 13 15  2  0
 15  8  1  0
  1 16  1  0
  1 17  1  0
  1 18  1  0
  2 19  1  0
  2 20  1  0
  3 21  1  0
  3 22  1  0
  4 23  1  0
  9 24  1  0
 10 25  1  0
 12 26  1  0
 12 27  1  0
 12 28  1  0
 14 29  1  0
 14 30  1  0
 14 31  1  0
 15 32  1  0
A    1
 C1 
A    2
 C2 
A    3
 C3 
A    4
 N1 
A    5
 S1 
A    6
 O1 
A    7
 O2 
A    8
 C4 
A    9
 C5 
A   10
 C6 
A   11
 C7 
A   12
 C8 
A   13
 C9 
A   14
 C10
A   15
 C11
A   16
 H1 
A   17
 H2 
A   18
 H3 
A   19
 H4 
A   20
 H5 
A   21
 H6 
A   22
 H7 
A   23
 H8 
A   24
 H9 
A   25
 H10
A   26
 H11
A   27
 H12
A   28
 H13
A   29
 H14
A   30
 H15
A   31
 H16
A   32
 H17
M  END
>  <ref_pdb>  (63) 
x0451_0A

>  <ref_mols>  (63) 
x0451_0A,x0554_0A,x0556_0A,x0566_0A,x0310_0A,x0416_0A

>  <original SMILES>  (63) 
CCCNS(=O)(=O)c1ccc(C)c(C)c1

>  <rationale>  (63) 
info info set:ROCS-shape_Q1;Warhead nanÅ to Cys110:SG; hydroph_interaction:Y90+D109; 

>  <∆∆G>  (63) 
-8.705707

>  <comRMSD>  (63) 
0.68542

>  <ROCS_TanimotoCombo>  (63) 
0.406

>  <ROCS_ShapeTanimoto>  (63) 
0.272

>  <ROCS_ColorTanimoto>  (63) 
0.134

>  <distance>  (63) 
nan

$$$$
EN300_28227296
     RDKit          3D

 41 42  0  0  0  0  0  0  0  0999 V2000
   11.2950    9.4540   24.5380 C   0  0  0  0  0  0  0  0  0  0  0  0
   10.1290    9.8150   23.8000 C   0  0  0  0  0  0  0  0  0  0  0  0
   10.0030    8.7800   22.7070 C   0  0  0  0  0  0  0  0  0  0  0  0
    9.9110   11.0010   23.2060 C   0  0  0  0  0  0  0  0  0  0  0  0
    9.7870   12.1420   24.0790 N   0  0  0  0  0  0  0  0  0  0  0  0
   10.2770   13.3820   23.6350 C   0  0  0  0  0  0  0  0  0  0  0  0
   10.6840   14.2050   24.4470 O   0  0  0  0  0  0  0  0  0  0  0  0
   10.2680   13.5930   22.4150 O   0  0  0  0  0  0  0  0  0  0  0  0
   11.2430   14.5360   21.8910 C   0  0  0  0  0  0  0  0  0  0  0  0
   10.7740   15.7940   22.2380 C   0  0  0  0  0  0  0  0  0  0  0  0
   11.4590   14.5150   20.3700 C   0  0  0  0  0  0  0  0  0  0  0  0
   12.5260   14.2850   22.6350 C   0  0  0  0  0  0  0  0  0  0  0  0
    8.6250   11.9470   24.8580 C   0  0  0  0  0  0  0  0  0  0  0  0
    7.8680   12.9710   25.3540 C   0  0  0  0  0  0  0  0  0  0  0  0
    6.6520   12.7130   26.1690 C   0  0  0  0  0  0  0  0  0  0  0  0
    5.6030   14.1260   26.8550 Br  0  0  0  0  0  0  0  0  0  0  0  0
    6.3330   11.3800   26.3960 C   0  0  0  0  0  0  0  0  0  0  0  0
    7.1170   10.3520   25.8800 C   0  0  0  0  0  0  0  0  0  0  0  0
    8.2410   10.6170   25.1240 C   0  0  0  0  0  0  0  0  0  0  0  0
    8.9720    9.5180   24.6410 N   0  0  0  0  0  0  0  0  0  0  0  0
   12.1860    9.9620   24.1770 H   0  0  0  0  0  0  0  0  0  0  0  0
   11.1450    9.6920   25.5440 H   0  0  0  0  0  0  0  0  0  0  0  0
   11.3930    8.3950   24.4630 H   0  0  0  0  0  0  0  0  0  0  0  0
   10.6460    7.9360   22.9630 H   0  0  0  0  0  0  0  0  0  0  0  0
   10.3020    9.2230   21.7710 H   0  0  0  0  0  0  0  0  0  0  0  0
    8.9780    8.4090   22.6130 H   0  0  0  0  0  0  0  0  0  0  0  0
   10.6390   11.1920   22.4340 H   0  0  0  0  0  0  0  0  0  0  0  0
    8.9200   10.9420   22.8010 H   0  0  0  0  0  0  0  0  0  0  0  0
   10.7720   15.9480   23.3220 H   0  0  0  0  0  0  0  0  0  0  0  0
    9.7610   15.9650   21.8520 H   0  0  0  0  0  0  0  0  0  0  0  0
   11.4220   16.5470   21.7740 H   0  0  0  0  0  0  0  0  0  0  0  0
   12.3180   13.8950   20.0980 H   0  0  0  0  0  0  0  0  0  0  0  0
   10.5750   14.1240   19.8570 H   0  0  0  0  0  0  0  0  0  0  0  0
   11.6490   15.5190   19.9730 H   0  0  0  0  0  0  0  0  0  0  0  0
   12.8780   13.2610   22.4630 H   0  0  0  0  0  0  0  0  0  0  0  0
   13.3020   14.9670   22.2860 H   0  0  0  0  0  0  0  0  0  0  0  0
   12.4230   14.4120   23.7140 H   0  0  0  0  0  0  0  0  0  0  0  0
    8.1740   13.9970   25.1410 H   0  0  0  0  0  0  0  0  0  0  0  0
    5.4570   11.1210   26.9850 H   0  0  0  0  0  0  0  0  0  0  0  0
    6.8270    9.3300   26.0860 H   0  0  0  0  0  0  0  0  0  0  0  0
    9.1550    8.8280   25.3670 H   0  0  0  0  0  0  0  0  0  0  0  0
  1  2  1  0
  2  3  1  0
  2  4  1  0
  4  5  1  0
  5  6  1  0
  6  7  2  0
  6  8  1  0
  8  9  1  0
  9 10  1  0
  9 11  1  0
  9 12  1  0
  5 13  1  0
 13 14  2  0
 14 15  1  0
 15 16  1  0
 15 17  2  0
 17 18  1  0
 18 19  2  0
 19 20  1  0
 20  2  1  0
 19 13  1  0
  1 21  1  0
  1 22  1  0
  1 23  1  0
  3 24  1  0
  3 25  1  0
  3 26  1  0
  4 27  1  0
  4 28  1  0
 10 29  1  0
 10 30  1  0
 10 31  1  0
 11 32  1  0
 11 33  1  0
 11 34  1  0
 12 35  1  0
 12 36  1  0
 12 37  1  0
 14 38  1  0
 17 39  1  0
 18 40  1  0
 20 41  1  0
A    1
 C1 
A    2
 C2 
A    3
 C3 
A    4
 C4 
A    5
 N1 
A    6
 C5 
A    7
 O1 
A    8
 O2 
A    9
 C6 
A   10
 C7 
A   11
 C8 
A   12
 C9 
A   13
 C10
A   14
 C11
A   15
 C12
A   16
BR1 
A   17
 C13
A   18
 C14
A   19
 C15
A   20
 N2 
A   21
 H1 
A   22
 H2 
A   23
 H3 
A   24
 H4 
A   25
 H5 
A   26
 H6 
A   27
 H7 
A   28
 H8 
A   29
 H9 
A   30
 H10
A   31
 H11
A   32
 H12
A   33
 H13
A   34
 H14
A   35
 H15
A   36
 H16
A   37
 H17
A   38
 H18
A   39
 H19
A   40
 H20
A   41
 H21
M  END
>  <ref_pdb>  (64) 
x0451_0A

>  <ref_mols>  (64) 
x0451_0A,x0554_0A,x0556_0A,x0566_0A,x0310_0A,x0416_0A

>  <original SMILES>  (64) 
CC1(C)CN(C(=O)OC(C)(C)C)c2cc(Br)ccc2N1

>  <rationale>  (64) 
info info set:ROCS-BB-0RB;Warhead nanÅ to Cys110:SG; hbond:S105; hydroph_interaction:Y89+A110+V124+D109; 

>  <∆∆G>  (64) 
-8.703711

>  <comRMSD>  (64) 
0.465904

>  <ROCS_TanimotoCombo>  (64) 
0.507

>  <ROCS_ShapeTanimoto>  (64) 
0.365

>  <ROCS_ColorTanimoto>  (64) 
0.143

>  <distance>  (64) 
nan

$$$$
Z56812705
     RDKit          3D

 28 28  0  0  0  0  0  0  0  0999 V2000
    6.3780   10.0140   26.0260 C   0  0  0  0  0  0  0  0  0  0  0  0
    7.5370   10.5360   25.1890 C   0  0  0  0  0  0  0  0  0  0  0  0
    7.4060   11.9920   24.8140 C   0  0  0  0  0  0  0  0  0  0  0  0
    8.5370   12.5470   24.0040 C   0  0  0  0  0  0  0  0  0  0  0  0
    8.3390   14.0120   23.6500 C   0  0  0  0  0  0  0  0  0  0  0  0
    9.6340   11.7480   23.6480 C   0  0  0  0  0  0  0  0  0  0  0  0
   10.7040   12.3150   22.9210 N   0  0  0  0  0  0  0  0  0  0  0  0
   11.1560   13.6120   23.1440 C   0  0  0  0  0  0  0  0  0  0  0  0
   10.8690   14.3000   24.1220 O   0  0  0  0  0  0  0  0  0  0  0  0
   11.9990   14.1290   22.1560 C   0  0  0  0  0  0  0  0  0  0  0  0
   11.1640   15.3430   21.1520 Cl  0  0  0  0  0  0  0  0  0  0  0  0
    9.6860   10.3720   24.0210 C   0  0  0  0  0  0  0  0  0  0  0  0
   10.7490    9.5500   23.6670 C   0  0  0  0  0  0  0  0  0  0  0  0
    8.6430    9.7900   24.7800 C   0  0  0  0  0  0  0  0  0  0  0  0
    5.9730   10.8320   26.6270 H   0  0  0  0  0  0  0  0  0  0  0  0
    6.7370    9.2720   26.7090 H   0  0  0  0  0  0  0  0  0  0  0  0
    5.5540    9.6140   25.4430 H   0  0  0  0  0  0  0  0  0  0  0  0
    6.5560   12.6050   25.1060 H   0  0  0  0  0  0  0  0  0  0  0  0
    7.2780   14.2390   23.5040 H   0  0  0  0  0  0  0  0  0  0  0  0
    8.8620   14.1890   22.6990 H   0  0  0  0  0  0  0  0  0  0  0  0
    8.7920   14.6890   24.3850 H   0  0  0  0  0  0  0  0  0  0  0  0
   10.8710   11.9820   21.9700 H   0  0  0  0  0  0  0  0  0  0  0  0
   12.8500   14.6280   22.6260 H   0  0  0  0  0  0  0  0  0  0  0  0
   12.3530   13.3250   21.5150 H   0  0  0  0  0  0  0  0  0  0  0  0
   10.9030    9.6340   22.5830 H   0  0  0  0  0  0  0  0  0  0  0  0
   11.6500    9.8920   24.1820 H   0  0  0  0  0  0  0  0  0  0  0  0
   10.6650    8.4910   23.8750 H   0  0  0  0  0  0  0  0  0  0  0  0
    8.7060    8.7430   25.0560 H   0  0  0  0  0  0  0  0  0  0  0  0
  1  2  1  0
  2  3  2  0
  3  4  1  0
  4  5  1  0
  4  6  2  0
  6  7  1  0
  7  8  1  0
  8  9  2  0
  8 10  1  0
 10 11  1  0
  6 12  1  0
 12 13  1  0
 12 14  2  0
 14  2  1  0
  1 15  1  0
  1 16  1  0
  1 17  1  0
  3 18  1  0
  5 19  1  0
  5 20  1  0
  5 21  1  0
  7 22  1  0
 10 23  1  0
 10 24  1  0
 13 25  1  0
 13 26  1  0
 13 27  1  0
 14 28  1  0
A    1
 C1 
A    2
 C2 
A    3
 C3 
A    4
 C4 
A    5
 C5 
A    6
 C6 
A    7
 N1 
A    8
 C7 
A    9
 O1 
A   10
 C8 
A   11
CL1 
A   12
 C9 
A   13
 C10
A   14
 C11
A   15
 H1 
A   16
 H2 
A   17
 H3 
A   18
 H4 
A   19
 H5 
A   20
 H6 
A   21
 H7 
A   22
 H8 
A   23
 H9 
A   24
 H10
A   25
 H11
A   26
 H12
A   27
 H13
A   28
 H14
M  END
>  <ref_pdb>  (65) 
x0451_0A

>  <ref_mols>  (65) 
x0451_0A,x0554_0A,x0556_0A,x0566_0A,x0310_0A,x0416_0A

>  <original SMILES>  (65) 
Cc1cc(C)c(NC(=O)CCl)c(C)c1

>  <rationale>  (65) 
info info set:ROCS-electro;Warhead 4.369771679390125Å to Cys110:SG; hbond:S125; hydroph_interaction:A110; 

>  <∆∆G>  (65) 
-8.695657

>  <comRMSD>  (65) 
0.464421

>  <ROCS_TanimotoCombo>  (65) 
0.408

>  <ROCS_ShapeTanimoto>  (65) 
0.269

>  <ROCS_ColorTanimoto>  (65) 
0.14

>  <distance>  (65) 
4.369772

$$$$
Z56934819
     RDKit          3D

 29 29  0  0  0  0  0  0  0  0999 V2000
    7.0800   11.2180   26.0620 C   0  0  0  0  0  0  0  0  0  0  0  0
    8.0990   10.7970   25.0670 C   0  0  0  0  0  0  0  0  0  0  0  0
    8.4560   12.2680   24.9200 C   0  0  0  0  0  0  0  0  0  0  0  0
    9.4790   12.3870   23.9920 C   0  0  0  0  0  0  0  0  0  0  0  0
    9.9950   13.7880   23.6990 C   0  0  0  0  0  0  0  0  0  0  0  0
   10.9300   13.7490   22.5880 N   0  0  0  0  0  0  0  0  0  0  0  0
   11.4760   14.9100   22.0910 C   0  0  0  0  0  0  0  0  0  0  0  0
   11.3650   16.0190   22.5980 O   0  0  0  0  0  0  0  0  0  0  0  0
   12.2150   14.8240   20.9030 C   0  0  0  0  0  0  0  0  0  0  0  0
   11.3130   15.4640   19.5180 Cl  0  0  0  0  0  0  0  0  0  0  0  0
   10.0210   11.2540   23.3450 C   0  0  0  0  0  0  0  0  0  0  0  0
    9.6330    9.9330   23.5280 C   0  0  0  0  0  0  0  0  0  0  0  0
   10.1980    8.9360   22.8600 C   0  0  0  0  0  0  0  0  0  0  0  0
    8.6310    9.7030   24.4400 C   0  0  0  0  0  0  0  0  0  0  0  0
    8.1890    8.4720   24.7180 O   0  0  0  0  0  0  0  0  0  0  0  0
    6.5390   10.3460   26.4450 H   0  0  0  0  0  0  0  0  0  0  0  0
    6.3500   11.8910   25.6010 H   0  0  0  0  0  0  0  0  0  0  0  0
    7.5460   11.7460   26.8990 H   0  0  0  0  0  0  0  0  0  0  0  0
    7.9420   13.0320   25.4890 H   0  0  0  0  0  0  0  0  0  0  0  0
    9.1680   14.4640   23.4600 H   0  0  0  0  0  0  0  0  0  0  0  0
   10.5240   14.2090   24.5600 H   0  0  0  0  0  0  0  0  0  0  0  0
   10.9510   12.9260   21.9600 H   0  0  0  0  0  0  0  0  0  0  0  0
   13.1330   15.4100   21.0010 H   0  0  0  0  0  0  0  0  0  0  0  0
   12.4460   13.7720   20.7040 H   0  0  0  0  0  0  0  0  0  0  0  0
   10.8280   11.3410   22.6110 H   0  0  0  0  0  0  0  0  0  0  0  0
   10.8270    8.2650   23.4310 H   0  0  0  0  0  0  0  0  0  0  0  0
    9.4140    8.2980   22.4350 H   0  0  0  0  0  0  0  0  0  0  0  0
   10.8300    9.2430   22.0320 H   0  0  0  0  0  0  0  0  0  0  0  0
    8.8240    8.0330   25.3200 H   0  0  0  0  0  0  0  0  0  0  0  0
  1  2  1  0
  2  3  2  0
  3  4  1  0
  4  5  1  0
  5  6  1  0
  6  7  1  0
  7  8  2  0
  7  9  1  0
  9 10  1  0
  4 11  2  0
 11 12  1  0
 12 13  1  0
 12 14  2  0
 14 15  1  0
 14  2  1  0
  1 16  1  0
  1 17  1  0
  1 18  1  0
  3 19  1  0
  5 20  1  0
  5 21  1  0
  6 22  1  0
  9 23  1  0
  9 24  1  0
 11 25  1  0
 13 26  1  0
 13 27  1  0
 13 28  1  0
 15 29  1  0
A    1
 C1 
A    2
 C2 
A    3
 C3 
A    4
 C4 
A    5
 C5 
A    6
 N1 
A    7
 C6 
A    8
 O1 
A    9
 C7 
A   10
CL1 
A   11
 C8 
A   12
 C9 
A   13
 C10
A   14
 C11
A   15
 O2 
A   16
 H1 
A   17
 H2 
A   18
 H3 
A   19
 H4 
A   20
 H5 
A   21
 H6 
A   22
 H7 
A   23
 H8 
A   24
 H9 
A   25
 H10
A   26
 H11
A   27
 H12
A   28
 H13
A   29
 H14
M  END
>  <ref_pdb>  (66) 
x0451_0A

>  <ref_mols>  (66) 
x0451_0A,x0554_0A,x0556_0A,x0566_0A,x0310_0A,x0416_0A

>  <original SMILES>  (66) 
Cc1cc(CNC(=O)CCl)cc(C)c1O

>  <rationale>  (66) 
info info set:ROCS-electro;Warhead 5.164872051658201Å to Cys110:SG; hbond:S87+S125; hydroph_interaction:V124; 

>  <∆∆G>  (66) 
-8.690012

>  <comRMSD>  (66) 
0.579251

>  <ROCS_TanimotoCombo>  (66) 
0.434

>  <ROCS_ShapeTanimoto>  (66) 
0.296

>  <ROCS_ColorTanimoto>  (66) 
0.139

>  <distance>  (66) 
5.164872

$$$$
EN300_28295154
     RDKit          3D

 37 38  0  0  0  0  0  0  0  0999 V2000
    9.8850    8.5470   22.8820 C   0  0  0  0  0  0  0  0  0  0  0  0
    9.7010    9.5870   23.9640 C   0  0  1  0  0  0  0  0  0  0  0  0
   10.2930   10.9280   23.5110 C   0  0  0  0  0  0  0  0  0  0  0  0
    9.6150   12.1180   23.7840 N   0  0  0  0  0  0  0  0  0  0  0  0
   10.1550   13.3500   23.5350 C   0  0  0  0  0  0  0  0  0  0  0  0
   10.5500   14.1380   24.3830 O   0  0  0  0  0  0  0  0  0  0  0  0
   10.2180   13.6430   22.1990 O   0  0  0  0  0  0  0  0  0  0  0  0
   11.2270   14.5570   21.7080 C   0  0  0  0  0  0  0  0  0  0  0  0
   11.6590   14.5640   20.2360 C   0  0  0  0  0  0  0  0  0  0  0  0
   12.4740   14.2830   22.5180 C   0  0  0  0  0  0  0  0  0  0  0  0
   10.7660   15.9750   21.9960 C   0  0  0  0  0  0  0  0  0  0  0  0
    8.5070   11.9400   24.7070 C   0  0  0  0  0  0  0  0  0  0  0  0
    8.0380   13.1740   25.4330 C   0  0  0  0  0  0  0  0  0  0  0  0
    6.8810   12.9250   26.3810 C   0  0  0  0  0  0  0  0  0  0  0  0
    6.1590   14.3610   27.3760 Br  0  0  0  0  0  0  0  0  0  0  0  0
    6.3410   11.6480   26.5280 C   0  0  0  0  0  0  0  0  0  0  0  0
    6.8390   10.5590   25.8140 C   0  0  0  0  0  0  0  0  0  0  0  0
    7.9070   10.7050   24.9160 C   0  0  0  0  0  0  0  0  0  0  0  0
    8.3070    9.5790   24.2740 O   0  0  0  0  0  0  0  0  0  0  0  0
    9.0020    7.9080   22.7750 H   0  0  0  0  0  0  0  0  0  0  0  0
   10.0760    9.0320   21.9210 H   0  0  0  0  0  0  0  0  0  0  0  0
   10.7360    7.9100   23.1120 H   0  0  0  0  0  0  0  0  0  0  0  0
   10.2640    9.2590   24.8430 H   0  0  0  0  0  0  0  0  0  0  0  0
   10.5020   10.8650   22.4490 H   0  0  0  0  0  0  0  0  0  0  0  0
   11.2690   11.0580   23.9940 H   0  0  0  0  0  0  0  0  0  0  0  0
   10.8080   14.4000   19.5680 H   0  0  0  0  0  0  0  0  0  0  0  0
   12.1290   15.5100   19.9450 H   0  0  0  0  0  0  0  0  0  0  0  0
   12.3850   13.7760   20.0140 H   0  0  0  0  0  0  0  0  0  0  0  0
   12.7990   13.2480   22.3680 H   0  0  0  0  0  0  0  0  0  0  0  0
   13.2720   14.9670   22.2250 H   0  0  0  0  0  0  0  0  0  0  0  0
   12.3100   14.4010   23.5900 H   0  0  0  0  0  0  0  0  0  0  0  0
   10.6020   16.1040   23.0720 H   0  0  0  0  0  0  0  0  0  0  0  0
    9.8300   16.2210   21.4790 H   0  0  0  0  0  0  0  0  0  0  0  0
   11.5170   16.7000   21.6710 H   0  0  0  0  0  0  0  0  0  0  0  0
    8.4910   14.1610   25.2900 H   0  0  0  0  0  0  0  0  0  0  0  0
    5.5120   11.5030   27.2170 H   0  0  0  0  0  0  0  0  0  0  0  0
    6.3410    9.6070   26.0090 H   0  0  0  0  0  0  0  0  0  0  0  0
  1  2  1  0
  2  3  1  0
  3  4  1  0
  4  5  1  0
  5  6  2  0
  5  7  1  0
  7  8  1  0
  8  9  1  0
  8 10  1  0
  8 11  1  0
  4 12  1  0
 12 13  2  0
 13 14  1  0
 14 15  1  0
 14 16  2  0
 16 17  1  0
 17 18  2  0
 18 19  1  0
 19  2  1  0
 18 12  1  0
  1 20  1  0
  1 21  1  0
  1 22  1  0
  2 23  1  1
  3 24  1  0
  3 25  1  0
  9 26  1  0
  9 27  1  0
  9 28  1  0
 10 29  1  0
 10 30  1  0
 10 31  1  0
 11 32  1  0
 11 33  1  0
 11 34  1  0
 13 35  1  0
 16 36  1  0
 17 37  1  0
A    1
 C1 
A    2
 C2 
A    3
 C3 
A    4
 N1 
A    5
 C4 
A    6
 O1 
A    7
 O2 
A    8
 C5 
A    9
 C6 
A   10
 C7 
A   11
 C8 
A   12
 C9 
A   13
 C10
A   14
 C11
A   15
BR1 
A   16
 C12
A   17
 C13
A   18
 C14
A   19
 O3 
A   20
 H1 
A   21
 H2 
A   22
 H3 
A   23
 H4 
A   24
 H5 
A   25
 H6 
A   26
 H7 
A   27
 H8 
A   28
 H9 
A   29
 H10
A   30
 H11
A   31
 H12
A   32
 H13
A   33
 H14
A   34
 H15
A   35
 H16
A   36
 H17
A   37
 H18
M  END
>  <ref_pdb>  (67) 
x0451_0A

>  <ref_mols>  (67) 
x0451_0A,x0554_0A,x0556_0A,x0566_0A,x0310_0A,x0416_0A

>  <original SMILES>  (67) 
C[C@H]1CN(C(=O)OC(C)(C)C)c2cc(Br)ccc2O1

>  <rationale>  (67) 
info info set:ROCS-BB-0RB;Warhead nanÅ to Cys110:SG; hydroph_interaction:Y89+V124+D109; 

>  <∆∆G>  (67) 
-8.68764

>  <comRMSD>  (67) 
0.349193

>  <ROCS_TanimotoCombo>  (67) 
0.508

>  <ROCS_ShapeTanimoto>  (67) 
0.354

>  <ROCS_ColorTanimoto>  (67) 
0.154

>  <distance>  (67) 
nan

$$$$
EN300_28299006
     RDKit          3D

 45 46  0  0  0  0  0  0  0  0999 V2000
    8.5980    8.1610   23.9110 C   0  0  0  0  0  0  0  0  0  0  0  0
    9.0780    9.5180   24.0950 C   0  0  2  0  0  0  0  0  0  0  0  0
   10.4740    9.8340   24.4860 C   0  0  0  0  0  0  0  0  0  0  0  0
   10.7430   11.1550   23.9370 C   0  0  0  0  0  0  0  0  0  0  0  0
   10.5460   10.9810   22.7050 C   0  0  0  0  0  0  0  0  0  0  0  0
   12.2300   11.5010   24.1010 C   0  0  0  0  0  0  0  0  0  0  0  0
    9.9020   12.2150   24.2030 N   0  0  0  0  0  0  0  0  0  0  0  0
   10.1630   13.5160   23.7960 C   0  0  0  0  0  0  0  0  0  0  0  0
   10.4320   14.4320   24.5590 O   0  0  0  0  0  0  0  0  0  0  0  0
   10.1160   13.7420   22.4350 O   0  0  0  0  0  0  0  0  0  0  0  0
   11.1730   14.5620   21.9650 C   0  0  0  0  0  0  0  0  0  0  0  0
   11.2610   14.4870   20.4390 C   0  0  0  0  0  0  0  0  0  0  0  0
   10.9580   16.0060   22.3340 C   0  0  0  0  0  0  0  0  0  0  0  0
   12.4660   14.0820   22.5470 C   0  0  0  0  0  0  0  0  0  0  0  0
    8.7280   11.8760   24.9390 C   0  0  0  0  0  0  0  0  0  0  0  0
    8.0530   12.8760   25.6650 C   0  0  0  0  0  0  0  0  0  0  0  0
    6.9340   12.6050   26.4090 C   0  0  0  0  0  0  0  0  0  0  0  0
    6.3750   11.2170   26.4860 C   0  0  0  0  0  0  0  0  0  0  0  0
    4.8510   10.8440   27.5290 Br  0  0  0  0  0  0  0  0  0  0  0  0
    7.1240   10.1510   25.6770 C   0  0  0  0  0  0  0  0  0  0  0  0
    8.2650   10.5160   24.9340 C   0  0  0  0  0  0  0  0  0  0  0  0
    8.2920    7.7180   24.8460 H   0  0  0  0  0  0  0  0  0  0  0  0
    7.7920    8.1450   23.1900 H   0  0  0  0  0  0  0  0  0  0  0  0
    9.4000    7.5510   23.4980 H   0  0  0  0  0  0  0  0  0  0  0  0
    9.0050    9.9110   23.0810 H   0  0  0  0  0  0  0  0  0  0  0  0
   11.1290    9.0940   24.0150 H   0  0  0  0  0  0  0  0  0  0  0  0
   10.6280    9.7790   25.5300 H   0  0  0  0  0  0  0  0  0  0  0  0
   10.6930   11.9610   22.2680 H   0  0  0  0  0  0  0  0  0  0  0  0
   11.1950   10.2400   22.2530 H   0  0  0  0  0  0  0  0  0  0  0  0
    9.5320   10.6130   22.5860 H   0  0  0  0  0  0  0  0  0  0  0  0
   12.4090   12.2730   24.8540 H   0  0  0  0  0  0  0  0  0  0  0  0
   12.6510   11.8510   23.1550 H   0  0  0  0  0  0  0  0  0  0  0  0
   12.7950   10.6170   24.4210 H   0  0  0  0  0  0  0  0  0  0  0  0
   10.3900   13.9270   20.0960 H   0  0  0  0  0  0  0  0  0  0  0  0
   11.1990   15.4290   19.9010 H   0  0  0  0  0  0  0  0  0  0  0  0
   12.1380   13.9710   20.0250 H   0  0  0  0  0  0  0  0  0  0  0  0
   11.0420   16.1390   23.4170 H   0  0  0  0  0  0  0  0  0  0  0  0
    9.9720   16.3560   22.0130 H   0  0  0  0  0  0  0  0  0  0  0  0
   11.7030   16.6560   21.8720 H   0  0  0  0  0  0  0  0  0  0  0  0
   12.3910   13.9490   23.6300 H   0  0  0  0  0  0  0  0  0  0  0  0
   12.7580   13.1180   22.1280 H   0  0  0  0  0  0  0  0  0  0  0  0
   13.2480   14.8100   22.3390 H   0  0  0  0  0  0  0  0  0  0  0  0
    8.3450   13.9300   25.7120 H   0  0  0  0  0  0  0  0  0  0  0  0
    6.4530   13.4180   26.9560 H   0  0  0  0  0  0  0  0  0  0  0  0
    6.7740    9.1360   25.6890 H   0  0  0  0  0  0  0  0  0  0  0  0
  1  2  1  0
  2  3  1  0
  3  4  1  0
  4  5  1  0
  4  6  1  0
  4  7  1  0
  7  8  1  0
  8  9  2  0
  8 10  1  0
 10 11  1  0
 11 12  1  0
 11 13  1  0
 11 14  1  0
  7 15  1  0
 15 16  2  0
 16 17  1  0
 17 18  2  0
 18 19  1  0
 18 20  1  0
 20 21  2  0
 21  2  1  0
 21 15  1  0
  1 22  1  0
  1 23  1  0
  1 24  1  0
  2 25  1  6
  3 26  1  0
  3 27  1  0
  5 28  1  0
  5 29  1  0
  5 30  1  0
  6 31  1  0
  6 32  1  0
  6 33  1  0
 12 34  1  0
 12 35  1  0
 12 36  1  0
 13 37  1  0
 13 38  1  0
 13 39  1  0
 14 40  1  0
 14 41  1  0
 14 42  1  0
 16 43  1  0
 17 44  1  0
 20 45  1  0
A    1
 C1 
A    2
 C2 
A    3
 C3 
A    4
 C4 
A    5
 C5 
A    6
 C6 
A    7
 N1 
A    8
 C7 
A    9
 O1 
A   10
 O2 
A   11
 C8 
A   12
 C9 
A   13
 C10
A   14
 C11
A   15
 C12
A   16
 C13
A   17
 C14
A   18
 C15
A   19
BR1 
A   20
 C16
A   21
 C17
A   22
 H1 
A   23
 H2 
A   24
 H3 
A   25
 H4 
A   26
 H5 
A   27
 H6 
A   28
 H7 
A   29
 H8 
A   30
 H9 
A   31
 H10
A   32
 H11
A   33
 H12
A   34
 H13
A   35
 H14
A   36
 H15
A   37
 H16
A   38
 H17
A   39
 H18
A   40
 H19
A   41
 H20
A   42
 H21
A   43
 H22
A   44
 H23
A   45
 H24
M  END
>  <ref_pdb>  (68) 
x0451_0A

>  <ref_mols>  (68) 
x0451_0A,x0554_0A,x0556_0A,x0566_0A,x0310_0A,x0416_0A

>  <original SMILES>  (68) 
C[C@@H]1CC(C)(C)N(C(=O)OC(C)(C)C)c2ccc(Br)cc21

>  <rationale>  (68) 
info info set:ROCS-BB-0RB;Warhead nanÅ to Cys110:SG; hydroph_interaction:A110+D109; 

>  <∆∆G>  (68) 
-8.681201

>  <comRMSD>  (68) 
1.018041

>  <ROCS_TanimotoCombo>  (68) 
0.478

>  <ROCS_ShapeTanimoto>  (68) 
0.359

>  <ROCS_ColorTanimoto>  (68) 
0.119

>  <distance>  (68) 
nan

$$$$
Z2710746217
     RDKit          3D

 45 45  0  0  0  0  0  0  0  0999 V2000
   11.7260   16.0220   19.4560 C   0  0  0  0  0  0  0  0  0  0  0  0
   11.1330   16.5010   20.6540 C   0  0  0  0  0  0  0  0  0  0  0  0
   11.4440   15.8600   21.8330 C   0  0  0  0  0  0  0  0  0  0  0  0
   11.4820   16.3340   22.9340 O   0  0  0  0  0  0  0  0  0  0  0  0
   11.6670   14.5850   21.5440 N   0  0  0  0  0  0  0  0  0  0  0  0
   11.1000   14.2130   20.2310 C   0  0  0  0  0  0  0  0  0  0  0  0
   11.9980   13.6140   22.4370 C   0  0  0  0  0  0  0  0  0  0  0  0
   10.9620   13.2970   23.3380 C   0  0  0  0  0  0  0  0  0  0  0  0
   10.6300   14.1210   24.1840 O   0  0  0  0  0  0  0  0  0  0  0  0
   10.3760   12.0400   23.2120 N   0  0  0  0  0  0  0  0  0  0  0  0
    9.2700   11.5360   23.9940 C   0  0  0  0  0  0  0  0  0  0  0  0
    8.2920   12.5620   24.6130 C   0  0  0  0  0  0  0  0  0  0  0  0
    7.1320   11.9700   25.4570 C   0  0  0  0  0  0  0  0  0  0  0  0
    6.2140   12.8290   26.0550 C   0  0  0  0  0  0  0  0  0  0  0  0
    6.1360   14.0230   25.8220 O   0  0  0  0  0  0  0  0  0  0  0  0
    5.4440   12.1370   26.9310 O   0  0  0  0  0  0  0  0  0  0  0  0
    4.1150   12.6260   27.0430 C   0  0  0  0  0  0  0  0  0  0  0  0
    6.9730   10.6140   25.6430 C   0  0  0  0  0  0  0  0  0  0  0  0
    7.9250    9.6450   25.0360 C   0  0  0  0  0  0  0  0  0  0  0  0
    9.0660   10.1320   24.2150 C   0  0  0  0  0  0  0  0  0  0  0  0
    9.8920    9.0530   23.7110 C   0  0  0  0  0  0  0  0  0  0  0  0
   10.9400    9.5170   22.9800 C   0  0  0  0  0  0  0  0  0  0  0  0
    9.0750    8.0560   22.9170 C   0  0  0  0  0  0  0  0  0  0  0  0
   12.4250   15.1770   19.4550 H   0  0  0  0  0  0  0  0  0  0  0  0
   11.4950   16.4990   18.4970 H   0  0  0  0  0  0  0  0  0  0  0  0
   10.4470   17.3380   20.6590 H   0  0  0  0  0  0  0  0  0  0  0  0
   10.7210   15.0640   19.6660 H   0  0  0  0  0  0  0  0  0  0  0  0
   10.2740   13.5510   20.4190 H   0  0  0  0  0  0  0  0  0  0  0  0
   11.8670   13.7070   19.6340 H   0  0  0  0  0  0  0  0  0  0  0  0
   12.4840   12.8080   21.9030 H   0  0  0  0  0  0  0  0  0  0  0  0
   12.8000   14.0540   23.0410 H   0  0  0  0  0  0  0  0  0  0  0  0
   10.5480   11.6200   22.2960 H   0  0  0  0  0  0  0  0  0  0  0  0
    8.4080   13.6310   24.4720 H   0  0  0  0  0  0  0  0  0  0  0  0
    3.8140   13.1540   26.1270 H   0  0  0  0  0  0  0  0  0  0  0  0
    4.0770   13.3480   27.8700 H   0  0  0  0  0  0  0  0  0  0  0  0
    3.4150   11.8190   27.2880 H   0  0  0  0  0  0  0  0  0  0  0  0
    6.1730   10.1420   26.2260 H   0  0  0  0  0  0  0  0  0  0  0  0
    7.8490    8.5690   25.1570 H   0  0  0  0  0  0  0  0  0  0  0  0
   10.3670    8.5590   24.5450 H   0  0  0  0  0  0  0  0  0  0  0  0
   11.6760   10.0090   23.6210 H   0  0  0  0  0  0  0  0  0  0  0  0
   10.5920   10.2460   22.2540 H   0  0  0  0  0  0  0  0  0  0  0  0
   11.3970    8.7130   22.4440 H   0  0  0  0  0  0  0  0  0  0  0  0
    9.3410    8.1070   21.8760 H   0  0  0  0  0  0  0  0  0  0  0  0
    9.2380    7.0320   23.2540 H   0  0  0  0  0  0  0  0  0  0  0  0
    8.0110    8.2630   23.0000 H   0  0  0  0  0  0  0  0  0  0  0  0
  1  2  2  0
  2  3  1  0
  3  4  2  0
  3  5  1  0
  5  6  1  0
  5  7  1  0
  7  8  1  0
  8  9  2  0
  8 10  1  0
 10 11  1  0
 11 12  2  0
 12 13  1  0
 13 14  1  0
 14 15  2  0
 14 16  1  0
 16 17  1  0
 13 18  2  0
 18 19  1  0
 19 20  2  0
 20 21  1  0
 21 22  1  0
 21 23  1  0
 20 11  1  0
  1 24  1  0
  1 25  1  0
  2 26  1  0
  6 27  1  0
  6 28  1  0
  6 29  1  0
  7 30  1  0
  7 31  1  0
 10 32  1  0
 12 33  1  0
 17 34  1  0
 17 35  1  0
 17 36  1  0
 18 37  1  0
 19 38  1  0
 21 39  1  0
 22 40  1  0
 22 41  1  0
 22 42  1  0
 23 43  1  0
 23 44  1  0
 23 45  1  0
A    1
 C1 
A    2
 C2 
A    3
 C3 
A    4
 O1 
A    5
 N1 
A    6
 C4 
A    7
 C5 
A    8
 C6 
A    9
 O2 
A   10
 N2 
A   11
 C7 
A   12
 C8 
A   13
 C9 
A   14
 C10
A   15
 O3 
A   16
 O4 
A   17
 C11
A   18
 C12
A   19
 C13
A   20
 C14
A   21
 C15
A   22
 C16
A   23
 C17
A   24
 H1 
A   25
 H2 
A   26
 H3 
A   27
 H4 
A   28
 H5 
A   29
 H6 
A   30
 H7 
A   31
 H8 
A   32
 H9 
A   33
 H10
A   34
 H11
A   35
 H12
A   36
 H13
A   37
 H14
A   38
 H15
A   39
 H16
A   40
 H17
A   41
 H18
A   42
 H19
A   43
 H20
A   44
 H21
A   45
 H22
M  END
>  <ref_pdb>  (69) 
x0451_0A

>  <ref_mols>  (69) 
x0451_0A,x0554_0A,x0556_0A,x0566_0A,x0310_0A,x0416_0A

>  <original SMILES>  (69) 
C=CC(=O)N(C)CC(=O)Nc1cc(C(=O)OC)ccc1C(C)C

>  <rationale>  (69) 
info info set:ROCS-cov2;Warhead 7.632821678776466Å to Cys110:SG; hbond:S87+S125; hydroph_interaction:Y90+A110+D109; 

>  <∆∆G>  (69) 
-8.680481

>  <comRMSD>  (69) 
0.785742

>  <ROCS_TanimotoCombo>  (69) 
0.527

>  <ROCS_ShapeTanimoto>  (69) 
0.372

>  <ROCS_ColorTanimoto>  (69) 
0.155

>  <distance>  (69) 
7.632822

$$$$
EN300_28297051
     RDKit          3D

 42 43  0  0  0  0  0  0  0  0999 V2000
    6.8810    9.4570   25.7950 C   0  0  0  0  0  0  0  0  0  0  0  0
    7.4650   10.6950   25.4960 C   0  0  0  0  0  0  0  0  0  0  0  0
    6.7540   11.7410   26.0340 C   0  0  0  0  0  0  0  0  0  0  0  0
    7.1590   13.0260   25.8470 C   0  0  0  0  0  0  0  0  0  0  0  0
    8.2980   13.2990   25.0980 C   0  0  0  0  0  0  0  0  0  0  0  0
    8.6810   15.1370   24.9540 Br  0  0  0  0  0  0  0  0  0  0  0  0
    9.0480   12.2640   24.5290 C   0  0  0  0  0  0  0  0  0  0  0  0
    8.6330   10.8690   24.7390 C   0  0  0  0  0  0  0  0  0  0  0  0
    9.6340    9.8930   24.0260 C   0  0  0  0  0  0  0  0  0  0  0  0
    8.8260    8.9070   23.2690 C   0  0  0  0  0  0  0  0  0  0  0  0
   10.8540    9.4360   24.6390 C   0  0  0  0  0  0  0  0  0  0  0  0
   10.4360   10.9250   23.2550 C   0  0  0  0  0  0  0  0  0  0  0  0
   10.1760   12.1290   23.7450 N   0  0  0  0  0  0  0  0  0  0  0  0
   10.7000   13.3770   23.2460 C   0  0  0  0  0  0  0  0  0  0  0  0
   11.0330   14.2840   24.0080 O   0  0  0  0  0  0  0  0  0  0  0  0
   10.7700   13.4400   21.8960 O   0  0  0  0  0  0  0  0  0  0  0  0
   11.0760   14.6740   21.2110 C   0  0  0  0  0  0  0  0  0  0  0  0
   11.4900   14.4840   19.7880 C   0  0  0  0  0  0  0  0  0  0  0  0
    9.7530   15.4620   21.2510 C   0  0  0  0  0  0  0  0  0  0  0  0
   12.1360   15.4470   21.9600 C   0  0  0  0  0  0  0  0  0  0  0  0
    5.9310    9.3930   25.2730 H   0  0  0  0  0  0  0  0  0  0  0  0
    7.5720    8.6760   25.4940 H   0  0  0  0  0  0  0  0  0  0  0  0
    6.6530    9.4070   26.8560 H   0  0  0  0  0  0  0  0  0  0  0  0
    5.8550   11.5500   26.6150 H   0  0  0  0  0  0  0  0  0  0  0  0
    6.5760   13.8300   26.2910 H   0  0  0  0  0  0  0  0  0  0  0  0
    9.1650    8.6140   22.2890 H   0  0  0  0  0  0  0  0  0  0  0  0
    7.8310    9.2930   23.2010 H   0  0  0  0  0  0  0  0  0  0  0  0
    8.7490    7.9760   23.8470 H   0  0  0  0  0  0  0  0  0  0  0  0
   11.0270    8.3940   24.4230 H   0  0  0  0  0  0  0  0  0  0  0  0
   10.8420    9.5710   25.6570 H   0  0  0  0  0  0  0  0  0  0  0  0
   11.7220    9.9840   24.2670 H   0  0  0  0  0  0  0  0  0  0  0  0
   10.2490   10.8630   22.2280 H   0  0  0  0  0  0  0  0  0  0  0  0
   11.4940   10.7380   23.3600 H   0  0  0  0  0  0  0  0  0  0  0  0
   10.6780   14.0270   19.2180 H   0  0  0  0  0  0  0  0  0  0  0  0
   12.3370   13.7960   19.7460 H   0  0  0  0  0  0  0  0  0  0  0  0
   11.8050   15.3500   19.2120 H   0  0  0  0  0  0  0  0  0  0  0  0
    9.0520   15.0050   21.9470 H   0  0  0  0  0  0  0  0  0  0  0  0
    9.9100   16.5040   21.5450 H   0  0  0  0  0  0  0  0  0  0  0  0
    9.2660   15.4500   20.2700 H   0  0  0  0  0  0  0  0  0  0  0  0
   12.6570   14.7920   22.6680 H   0  0  0  0  0  0  0  0  0  0  0  0
   12.8890   15.8590   21.2900 H   0  0  0  0  0  0  0  0  0  0  0  0
   11.6930   16.2880   22.4980 H   0  0  0  0  0  0  0  0  0  0  0  0
  1  2  1  0
  2  3  2  0
  3  4  1  0
  4  5  2  0
  5  6  1  0
  5  7  1  0
  7  8  2  0
  8  9  1  0
  9 10  1  0
  9 11  1  0
  9 12  1  0
 12 13  1  0
 13 14  1  0
 14 15  2  0
 14 16  1  0
 16 17  1  0
 17 18  1  0
 17 19  1  0
 17 20  1  0
  8  2  1  0
 13  7  1  0
  1 21  1  0
  1 22  1  0
  1 23  1  0
  3 24  1  0
  4 25  1  0
 10 26  1  0
 10 27  1  0
 10 28  1  0
 11 29  1  0
 11 30  1  0
 11 31  1  0
 12 32  1  0
 12 33  1  0
 18 34  1  0
 18 35  1  0
 18 36  1  0
 19 37  1  0
 19 38  1  0
 19 39  1  0
 20 40  1  0
 20 41  1  0
 20 42  1  0
A    1
 C1 
A    2
 C2 
A    3
 C3 
A    4
 C4 
A    5
 C5 
A    6
BR1 
A    7
 C6 
A    8
 C7 
A    9
 C8 
A   10
 C9 
A   11
 C10
A   12
 C11
A   13
 N1 
A   14
 C12
A   15
 O1 
A   16
 O2 
A   17
 C13
A   18
 C14
A   19
 C15
A   20
 C16
A   21
 H1 
A   22
 H2 
A   23
 H3 
A   24
 H4 
A   25
 H5 
A   26
 H6 
A   27
 H7 
A   28
 H8 
A   29
 H9 
A   30
 H10
A   31
 H11
A   32
 H12
A   33
 H13
A   34
 H14
A   35
 H15
A   36
 H16
A   37
 H17
A   38
 H18
A   39
 H19
A   40
 H20
A   41
 H21
A   42
 H22
M  END
>  <ref_pdb>  (70) 
x0451_0A

>  <ref_mols>  (70) 
x0451_0A,x0554_0A,x0556_0A,x0566_0A,x0310_0A,x0416_0A

>  <original SMILES>  (70) 
Cc1ccc(Br)c2c1C(C)(C)CN2C(=O)OC(C)(C)C

>  <rationale>  (70) 
info info set:ROCS-BB-0RB;Warhead nanÅ to Cys110:SG; hydroph_interaction:Y89+D109; 

>  <∆∆G>  (70) 
-8.669924

>  <comRMSD>  (70) 
0.833697

>  <ROCS_TanimotoCombo>  (70) 
0.486

>  <ROCS_ShapeTanimoto>  (70) 
0.356

>  <ROCS_ColorTanimoto>  (70) 
0.13

>  <distance>  (70) 
nan

$$$$
Z603271110
     RDKit          3D

 49 52  0  0  0  0  0  0  0  0999 V2000
    4.9980   10.3980   27.2280 C   0  0  0  0  0  0  0  0  0  0  0  0
    6.1500   10.8830   26.3640 C   0  0  0  0  0  0  0  0  0  0  0  0
    6.8550    9.9830   25.6520 N   0  0  0  0  0  0  0  0  0  0  0  0
    7.8620   10.5500   24.9120 C   0  0  0  0  0  0  0  0  0  0  0  0
    8.8070    9.7890   24.0290 C   0  0  0  0  0  0  0  0  0  0  0  0
    9.7470   10.5590   23.3520 C   0  0  0  0  0  0  0  0  0  0  0  0
    9.7620   11.9510   23.5230 C   0  0  0  0  0  0  0  0  0  0  0  0
   10.6560   12.7650   22.8590 N   0  0  0  0  0  0  0  0  0  0  0  0
   10.9720   14.0670   23.1350 C   0  0  0  0  0  0  0  0  0  0  0  0
   10.1480   14.9380   23.3840 O   0  0  0  0  0  0  0  0  0  0  0  0
   12.2090   14.3720   23.1220 N   0  0  0  0  0  0  0  0  0  0  0  0
   12.7930   13.1750   23.4400 C   0  0  0  0  0  0  0  0  0  0  0  0
   13.6200   13.0050   24.7660 C   0  0  0  0  0  0  0  0  0  0  0  0
   12.6140   13.2510   25.9120 C   0  0  0  0  0  0  0  0  0  0  0  0
   13.4180   13.0880   27.2500 C   0  0  0  0  0  0  0  0  0  0  0  0
   14.9050   12.7470   27.2310 C   0  0  0  0  0  0  0  0  0  0  0  0
   15.6850   12.5500   26.1760 N   0  0  0  0  0  0  0  0  0  0  0  0
   15.0770   12.6680   24.9910 C   0  0  0  0  0  0  0  0  0  0  0  0
   12.5670   15.2130   22.1000 C   0  0  0  0  0  0  0  0  0  0  0  0
   11.9330   14.9590   20.8720 C   0  0  2  0  0  0  0  0  0  0  0  0
   12.7210   15.0070   19.5940 C   0  0  0  0  0  0  0  0  0  0  0  0
   11.9290   15.6090   18.4810 C   0  0  0  0  0  0  0  0  0  0  0  0
   10.7850   16.2950   19.1990 C   0  0  0  0  0  0  0  0  0  0  0  0
   11.1010   16.1400   20.6210 O   0  0  0  0  0  0  0  0  0  0  0  0
    8.8820   12.6420   24.3580 C   0  0  0  0  0  0  0  0  0  0  0  0
    7.9300   11.9260   25.0530 C   0  0  0  0  0  0  0  0  0  0  0  0
    6.7020   12.4900   26.1580 S   0  0  0  0  0  0  0  0  0  0  0  0
    4.2040   11.1500   27.2840 H   0  0  0  0  0  0  0  0  0  0  0  0
    5.3410   10.1890   28.2470 H   0  0  0  0  0  0  0  0  0  0  0  0
    4.5610    9.4760   26.8320 H   0  0  0  0  0  0  0  0  0  0  0  0
    8.8360    8.7050   23.8550 H   0  0  0  0  0  0  0  0  0  0  0  0
   10.4650   10.0820   22.6870 H   0  0  0  0  0  0  0  0  0  0  0  0
   11.0420   12.3950   21.9810 H   0  0  0  0  0  0  0  0  0  0  0  0
   13.2610   12.6840   22.6000 H   0  0  0  0  0  0  0  0  0  0  0  0
   11.9270   12.5300   23.5820 H   0  0  0  0  0  0  0  0  0  0  0  0
   11.5570   13.4930   25.8170 H   0  0  0  0  0  0  0  0  0  0  0  0
   13.0060   13.2030   28.2480 H   0  0  0  0  0  0  0  0  0  0  0  0
   15.3620   12.6600   28.2220 H   0  0  0  0  0  0  0  0  0  0  0  0
   15.7010   12.5030   24.1450 H   0  0  0  0  0  0  0  0  0  0  0  0
   12.3460   16.1970   22.4740 H   0  0  0  0  0  0  0  0  0  0  0  0
   13.6240   15.2370   22.1260 H   0  0  0  0  0  0  0  0  0  0  0  0
   11.2580   14.1210   20.7490 H   0  0  0  0  0  0  0  0  0  0  0  0
   13.6400   15.5040   19.7200 H   0  0  0  0  0  0  0  0  0  0  0  0
   12.9180   13.9780   19.2820 H   0  0  0  0  0  0  0  0  0  0  0  0
   11.5100   14.8010   17.8720 H   0  0  0  0  0  0  0  0  0  0  0  0
   12.5110   16.2520   17.8260 H   0  0  0  0  0  0  0  0  0  0  0  0
   10.6740   17.3510   18.9400 H   0  0  0  0  0  0  0  0  0  0  0  0
    9.8350   15.7820   19.0060 H   0  0  0  0  0  0  0  0  0  0  0  0
    8.9320   13.7270   24.4660 H   0  0  0  0  0  0  0  0  0  0  0  0
  1  2  1  0
  2  3  2  0
  3  4  1  0
  4  5  2  0
  5  6  1  0
  6  7  2  0
  7  8  1  0
  8  9  1  0
  9 10  2  0
  9 11  1  0
 11 12  1  0
 12 13  1  0
 13 14  2  0
 14 15  1  0
 15 16  2  0
 16 17  1  0
 17 18  2  0
 11 19  1  0
 19 20  1  0
 20 21  1  0
 21 22  1  0
 22 23  1  0
 23 24  1  0
  7 25  1  0
 25 26  2  0
 26 27  1  0
 27  2  1  0
 26  4  1  0
 18 13  1  0
 24 20  1  0
  1 28  1  0
  1 29  1  0
  1 30  1  0
  5 31  1  0
  6 32  1  0
  8 33  1  0
 12 34  1  0
 12 35  1  0
 14 36  1  0
 15 37  1  0
 16 38  1  0
 18 39  1  0
 19 40  1  0
 19 41  1  0
 20 42  1  1
 21 43  1  0
 21 44  1  0
 22 45  1  0
 22 46  1  0
 23 47  1  0
 23 48  1  0
 25 49  1  0
A    1
 C1 
A    2
 C2 
A    3
 N1 
A    4
 C3 
A    5
 C4 
A    6
 C5 
A    7
 C6 
A    8
 N2 
A    9
 C7 
A   10
 O1 
A   11
 N3 
A   12
 C8 
A   13
 C9 
A   14
 C10
A   15
 C11
A   16
 C12
A   17
 N4 
A   18
 C13
A   19
 C14
A   20
 C15
A   21
 C16
A   22
 C17
A   23
 C18
A   24
 O2 
A   25
 C19
A   26
 C20
A   27
 S1 
A   28
 H1 
A   29
 H2 
A   30
 H3 
A   31
 H4 
A   32
 H5 
A   33
 H6 
A   34
 H7 
A   35
 H8 
A   36
 H9 
A   37
 H10
A   38
 H11
A   39
 H12
A   40
 H13
A   41
 H14
A   42
 H15
A   43
 H16
A   44
 H17
A   45
 H18
A   46
 H19
A   47
 H20
A   48
 H21
A   49
 H22
M  END
>  <ref_pdb>  (71) 
x0451_0A

>  <ref_mols>  (71) 
x0451_0A,x0554_0A,x0556_0A,x0566_0A,x0310_0A,x0416_0A

>  <original SMILES>  (71) 
Cc1nc2ccc(NC(=O)N(Cc3cccnc3)C[C@@H]3CCCO3)cc2s1

>  <rationale>  (71) 
info info set:ROCS-PPI;Warhead nanÅ to Cys110:SG; hbond:S87+S125; hydroph_interaction:Y89+Y90+P107+D39; 

>  <∆∆G>  (71) 
-8.644637

>  <comRMSD>  (71) 
0.989171

>  <ROCS_TanimotoCombo>  (71) 
0.546

>  <ROCS_ShapeTanimoto>  (71) 
0.355

>  <ROCS_ColorTanimoto>  (71) 
0.19

>  <distance>  (71) 
nan

$$$$
Z420031520
     RDKit          3D

 31 32  0  0  0  0  0  0  0  0999 V2000
   12.6870   15.1740   19.4910 C   0  0  0  0  0  0  0  0  0  0  0  0
   11.4330   15.7060   20.1130 C   0  0  0  0  0  0  0  0  0  0  0  0
   10.6920   16.7600   19.3020 C   0  0  0  0  0  0  0  0  0  0  0  0
    9.5360   17.2890   19.8170 C   0  0  0  0  0  0  0  0  0  0  0  0
    9.0050   16.8100   21.1690 C   0  0  0  0  0  0  0  0  0  0  0  0
    9.7680   15.8270   21.8370 C   0  0  0  0  0  0  0  0  0  0  0  0
   10.9630   15.2810   21.3340 C   0  0  0  0  0  0  0  0  0  0  0  0
   11.6560   14.3240   22.0530 C   0  0  0  0  0  0  0  0  0  0  0  0
   10.7820   13.2530   22.4220 N   0  0  0  0  0  0  0  0  0  0  0  0
   10.3460   13.1590   23.7210 C   0  0  0  0  0  0  0  0  0  0  0  0
   10.6350   14.0300   24.5410 O   0  0  0  0  0  0  0  0  0  0  0  0
    9.5470   12.0050   24.0550 C   0  0  0  0  0  0  0  0  0  0  0  0
   10.0080   10.4650   23.4420 S   0  0  0  0  0  0  0  0  0  0  0  0
    8.6760    9.7770   24.2430 C   0  0  0  0  0  0  0  0  0  0  0  0
    7.9110   10.5970   24.9330 N   0  0  0  0  0  0  0  0  0  0  0  0
    8.4050   11.8840   24.8320 C   0  0  0  0  0  0  0  0  0  0  0  0
    7.6650   12.9550   25.5590 C   0  0  0  0  0  0  0  0  0  0  0  0
   12.6680   14.0800   19.4580 H   0  0  0  0  0  0  0  0  0  0  0  0
   12.8240   15.5370   18.4710 H   0  0  0  0  0  0  0  0  0  0  0  0
   13.5330   15.4750   20.0940 H   0  0  0  0  0  0  0  0  0  0  0  0
   11.0580   17.0980   18.3350 H   0  0  0  0  0  0  0  0  0  0  0  0
    8.9930   18.0490   19.2580 H   0  0  0  0  0  0  0  0  0  0  0  0
    8.0850   17.2080   21.5930 H   0  0  0  0  0  0  0  0  0  0  0  0
    9.4010   15.4800   22.8030 H   0  0  0  0  0  0  0  0  0  0  0  0
   12.4840   13.9100   21.4680 H   0  0  0  0  0  0  0  0  0  0  0  0
   12.1040   14.7500   22.9560 H   0  0  0  0  0  0  0  0  0  0  0  0
   10.8460   12.4220   21.8380 H   0  0  0  0  0  0  0  0  0  0  0  0
    8.4930    8.7180   24.1740 H   0  0  0  0  0  0  0  0  0  0  0  0
    7.6960   13.8970   25.0020 H   0  0  0  0  0  0  0  0  0  0  0  0
    6.6130   12.6840   25.6920 H   0  0  0  0  0  0  0  0  0  0  0  0
    8.1180   13.1230   26.5390 H   0  0  0  0  0  0  0  0  0  0  0  0
  1  2  1  0
  2  3  2  0
  3  4  1  0
  4  5  2  0
  5  6  1  0
  6  7  2  0
  7  8  1  0
  8  9  1  0
  9 10  1  0
 10 11  2  0
 10 12  1  0
 12 13  1  0
 13 14  1  0
 14 15  2  0
 15 16  1  0
 16 17  1  0
  7  2  1  0
 16 12  2  0
  1 18  1  0
  1 19  1  0
  1 20  1  0
  3 21  1  0
  4 22  1  0
  5 23  1  0
  6 24  1  0
  8 25  1  0
  8 26  1  0
  9 27  1  0
 14 28  1  0
 17 29  1  0
 17 30  1  0
 17 31  1  0
A    1
 C1 
A    2
 C2 
A    3
 C3 
A    4
 C4 
A    5
 C5 
A    6
 C6 
A    7
 C7 
A    8
 C8 
A    9
 N1 
A   10
 C9 
A   11
 O1 
A   12
 C10
A   13
 S1 
A   14
 C11
A   15
 N2 
A   16
 C12
A   17
 C13
A   18
 H1 
A   19
 H2 
A   20
 H3 
A   21
 H4 
A   22
 H5 
A   23
 H6 
A   24
 H7 
A   25
 H8 
A   26
 H9 
A   27
 H10
A   28
 H11
A   29
 H12
A   30
 H13
A   31
 H14
M  END
>  <ref_pdb>  (72) 
x0451_0A

>  <ref_mols>  (72) 
x0451_0A,x0554_0A,x0556_0A,x0566_0A,x0310_0A,x0416_0A

>  <original SMILES>  (72) 
Cc1ccccc1CNC(=O)c1scnc1C

>  <rationale>  (72) 
info info set:ROCS-shape_Q1;Warhead nanÅ to Cys110:SG; hbond:S125; hydroph_interaction:Y90+V84+T126; 

>  <∆∆G>  (72) 
-8.64456

>  <comRMSD>  (72) 
0.579215

>  <ROCS_TanimotoCombo>  (72) 
0.426

>  <ROCS_ShapeTanimoto>  (72) 
0.261

>  <ROCS_ColorTanimoto>  (72) 
0.165

>  <distance>  (72) 
nan

$$$$
EN300_24589340
     RDKit          3D

 42 43  0  0  0  0  0  0  0  0999 V2000
   12.0220   15.3660   22.1870 C   0  0  0  0  0  0  0  0  0  0  0  0
   10.9180   14.7750   21.4580 C   0  0  0  0  0  0  0  0  0  0  0  0
    9.6420   15.6080   21.2660 C   0  0  0  0  0  0  0  0  0  0  0  0
   11.5140   14.5010   20.0610 C   0  0  0  0  0  0  0  0  0  0  0  0
   10.6210   13.5700   22.2310 O   0  0  0  0  0  0  0  0  0  0  0  0
   10.4270   13.5880   23.5930 C   0  0  0  0  0  0  0  0  0  0  0  0
   10.5720   14.5670   24.3020 O   0  0  0  0  0  0  0  0  0  0  0  0
   10.0630   12.3270   23.9700 N   0  0  0  0  0  0  0  0  0  0  0  0
   10.5600   11.2130   23.3010 C   0  0  0  0  0  0  0  0  0  0  0  0
    9.5430   10.3090   23.0680 C   0  0  0  0  0  0  0  0  0  0  0  0
    9.4120    9.5610   24.1260 C   0  0  0  0  0  0  0  0  0  0  0  0
   10.8410    9.3280   24.5750 C   0  0  0  0  0  0  0  0  0  0  0  0
    8.7830    8.2220   23.6900 C   0  0  0  0  0  0  0  0  0  0  0  0
    8.5430   10.5920   24.8940 C   0  0  0  0  0  0  0  0  0  0  0  0
    7.3270   10.1790   25.7330 C   0  0  0  0  0  0  0  0  0  0  0  0
    6.6150   11.2590   26.3650 C   0  0  0  0  0  0  0  0  0  0  0  0
    6.9810   12.6220   26.2430 C   0  0  0  0  0  0  0  0  0  0  0  0
    5.9960   13.9910   27.0970 Br  0  0  0  0  0  0  0  0  0  0  0  0
    8.1840   12.9740   25.4080 C   0  0  0  0  0  0  0  0  0  0  0  0
    8.9180   11.9830   24.7700 C   0  0  0  0  0  0  0  0  0  0  0  0
   12.3900   14.6700   22.9450 H   0  0  0  0  0  0  0  0  0  0  0  0
   12.8550   15.6270   21.5250 H   0  0  0  0  0  0  0  0  0  0  0  0
   11.6700   16.2820   22.6670 H   0  0  0  0  0  0  0  0  0  0  0  0
    9.0220   15.4040   20.3960 H   0  0  0  0  0  0  0  0  0  0  0  0
    9.9370   16.6640   21.2200 H   0  0  0  0  0  0  0  0  0  0  0  0
    9.0260   15.5280   22.1720 H   0  0  0  0  0  0  0  0  0  0  0  0
   12.3600   13.8130   20.1110 H   0  0  0  0  0  0  0  0  0  0  0  0
   11.8860   15.4180   19.5860 H   0  0  0  0  0  0  0  0  0  0  0  0
   10.7730   14.0740   19.3780 H   0  0  0  0  0  0  0  0  0  0  0  0
   11.4920   10.9450   23.7720 H   0  0  0  0  0  0  0  0  0  0  0  0
   10.8790   11.6310   22.3760 H   0  0  0  0  0  0  0  0  0  0  0  0
    8.6170   10.7840   22.8470 H   0  0  0  0  0  0  0  0  0  0  0  0
    9.8130    9.6440   22.2410 H   0  0  0  0  0  0  0  0  0  0  0  0
   11.2100    8.3410   24.6180 H   0  0  0  0  0  0  0  0  0  0  0  0
   10.9780    9.7420   25.5290 H   0  0  0  0  0  0  0  0  0  0  0  0
   11.5450    9.8430   23.9180 H   0  0  0  0  0  0  0  0  0  0  0  0
    7.9220    8.3530   23.0530 H   0  0  0  0  0  0  0  0  0  0  0  0
    8.4710    7.6400   24.5610 H   0  0  0  0  0  0  0  0  0  0  0  0
    9.5050    7.6160   23.1330 H   0  0  0  0  0  0  0  0  0  0  0  0
    6.9960    9.1560   25.8600 H   0  0  0  0  0  0  0  0  0  0  0  0
    5.7450   11.0000   26.9650 H   0  0  0  0  0  0  0  0  0  0  0  0
    8.4520   14.0210   25.3250 H   0  0  0  0  0  0  0  0  0  0  0  0
  1  2  1  0
  2  3  1  0
  2  4  1  0
  2  5  1  0
  5  6  1  0
  6  7  2  0
  6  8  1  0
  8  9  1  0
  9 10  1  0
 10 11  1  0
 11 12  1  0
 11 13  1  0
 11 14  1  0
 14 15  2  0
 15 16  1  0
 16 17  2  0
 17 18  1  0
 17 19  1  0
 19 20  2  0
 20  8  1  0
 20 14  1  0
  1 21  1  0
  1 22  1  0
  1 23  1  0
  3 24  1  0
  3 25  1  0
  3 26  1  0
  4 27  1  0
  4 28  1  0
  4 29  1  0
  9 30  1  0
  9 31  1  0
 10 32  1  0
 10 33  1  0
 12 34  1  0
 12 35  1  0
 12 36  1  0
 13 37  1  0
 13 38  1  0
 13 39  1  0
 15 40  1  0
 16 41  1  0
 19 42  1  0
A    1
 C1 
A    2
 C2 
A    3
 C3 
A    4
 C4 
A    5
 O1 
A    6
 C5 
A    7
 O2 
A    8
 N1 
A    9
 C6 
A   10
 C7 
A   11
 C8 
A   12
 C9 
A   13
 C10
A   14
 C11
A   15
 C12
A   16
 C13
A   17
 C14
A   18
BR1 
A   19
 C15
A   20
 C16
A   21
 H1 
A   22
 H2 
A   23
 H3 
A   24
 H4 
A   25
 H5 
A   26
 H6 
A   27
 H7 
A   28
 H8 
A   29
 H9 
A   30
 H10
A   31
 H11
A   32
 H12
A   33
 H13
A   34
 H14
A   35
 H15
A   36
 H16
A   37
 H17
A   38
 H18
A   39
 H19
A   40
 H20
A   41
 H21
A   42
 H22
M  END
>  <ref_pdb>  (73) 
x0451_0A

>  <ref_mols>  (73) 
x0451_0A,x0554_0A,x0556_0A,x0566_0A,x0310_0A,x0416_0A

>  <original SMILES>  (73) 
CC(C)(C)OC(=O)N1CCC(C)(C)c2ccc(Br)cc21

>  <rationale>  (73) 
info info set:ROCS-BB-0RB;Warhead nanÅ to Cys110:SG; hydroph_interaction:Y89; 

>  <∆∆G>  (73) 
-8.619778

>  <comRMSD>  (73) 
0.678447

>  <ROCS_TanimotoCombo>  (73) 
0.48

>  <ROCS_ShapeTanimoto>  (73) 
0.361

>  <ROCS_ColorTanimoto>  (73) 
0.119

>  <distance>  (73) 
nan

$$$$
Z1728432545
     RDKit          3D

 39 40  0  0  0  0  0  0  0  0999 V2000
   12.9370   11.6150   24.9730 C   0  0  0  0  0  0  0  0  0  0  0  0
   12.5460   12.9500   25.6460 C   0  0  0  0  0  0  0  0  0  0  0  0
   13.0420   13.0350   27.0980 C   0  0  0  0  0  0  0  0  0  0  0  0
   11.0430   13.2540   25.6030 C   0  0  0  0  0  0  0  0  0  0  0  0
   10.4720   13.0970   24.2660 N   0  0  0  0  0  0  0  0  0  0  0  0
   10.7360   14.0920   23.3290 C   0  0  0  0  0  0  0  0  0  0  0  0
   10.6860   13.7640   22.0070 N   0  0  0  0  0  0  0  0  0  0  0  0
   10.9980   15.2590   23.6080 O   0  0  0  0  0  0  0  0  0  0  0  0
    9.7360   11.8490   23.9600 C   0  0  1  0  0  0  0  0  0  0  0  0
   10.6090   10.6120   23.9860 C   0  0  0  0  0  0  0  0  0  0  0  0
    9.9010    9.3510   23.4940 C   0  0  0  0  0  0  0  0  0  0  0  0
    8.5340    9.1560   24.1460 C   0  0  0  0  0  0  0  0  0  0  0  0
    7.9200   10.3610   24.8330 C   0  0  0  0  0  0  0  0  0  0  0  0
    6.7500   10.1970   25.5780 C   0  0  0  0  0  0  0  0  0  0  0  0
    6.1620   11.2770   26.2100 C   0  0  0  0  0  0  0  0  0  0  0  0
    6.7700   12.5230   26.0780 C   0  0  0  0  0  0  0  0  0  0  0  0
    7.8990   12.7210   25.3710 N   0  0  0  0  0  0  0  0  0  0  0  0
    8.4620   11.6390   24.7580 C   0  0  0  0  0  0  0  0  0  0  0  0
   12.2420   10.8140   25.2210 H   0  0  0  0  0  0  0  0  0  0  0  0
   13.9420   11.2980   25.2760 H   0  0  0  0  0  0  0  0  0  0  0  0
   12.9380   11.7330   23.8840 H   0  0  0  0  0  0  0  0  0  0  0  0
   13.0500   13.7140   25.0630 H   0  0  0  0  0  0  0  0  0  0  0  0
   13.0570   12.0420   27.5480 H   0  0  0  0  0  0  0  0  0  0  0  0
   14.0440   13.4470   27.2180 H   0  0  0  0  0  0  0  0  0  0  0  0
   12.3510   13.6620   27.6810 H   0  0  0  0  0  0  0  0  0  0  0  0
   10.8960   14.2850   25.9410 H   0  0  0  0  0  0  0  0  0  0  0  0
   10.4880   12.5990   26.2820 H   0  0  0  0  0  0  0  0  0  0  0  0
   11.0660   12.8410   21.7910 H   0  0  0  0  0  0  0  0  0  0  0  0
   11.1190   14.4800   21.4270 H   0  0  0  0  0  0  0  0  0  0  0  0
    9.3850   11.9550   22.9490 H   0  0  0  0  0  0  0  0  0  0  0  0
   10.9630   10.4000   24.9980 H   0  0  0  0  0  0  0  0  0  0  0  0
   11.4940   10.7910   23.3700 H   0  0  0  0  0  0  0  0  0  0  0  0
   10.5350    8.4810   23.7020 H   0  0  0  0  0  0  0  0  0  0  0  0
    9.7840    9.3940   22.4060 H   0  0  0  0  0  0  0  0  0  0  0  0
    7.8740    8.7950   23.3680 H   0  0  0  0  0  0  0  0  0  0  0  0
    8.6100    8.3550   24.8890 H   0  0  0  0  0  0  0  0  0  0  0  0
    6.2860    9.2280   25.6730 H   0  0  0  0  0  0  0  0  0  0  0  0
    5.2520   11.1590   26.7900 H   0  0  0  0  0  0  0  0  0  0  0  0
    6.3530   13.4080   26.5490 H   0  0  0  0  0  0  0  0  0  0  0  0
  1  2  1  0
  2  3  1  0
  2  4  1  0
  4  5  1  0
  5  6  1  0
  6  7  1  0
  6  8  2  0
  5  9  1  0
  9 10  1  0
 10 11  1  0
 11 12  1  0
 12 13  1  0
 13 14  2  0
 14 15  1  0
 15 16  2  0
 16 17  1  0
 17 18  2  0
 18  9  1  0
 18 13  1  0
  1 19  1  0
  1 20  1  0
  1 21  1  0
  2 22  1  0
  3 23  1  0
  3 24  1  0
  3 25  1  0
  4 26  1  0
  4 27  1  0
  7 28  1  0
  7 29  1  0
  9 30  1  6
 10 31  1  0
 10 32  1  0
 11 33  1  0
 11 34  1  0
 12 35  1  0
 12 36  1  0
 14 37  1  0
 15 38  1  0
 16 39  1  0
A    1
 C1 
A    2
 C2 
A    3
 C3 
A    4
 C4 
A    5
 N1 
A    6
 C5 
A    7
 N2 
A    8
 O1 
A    9
 C6 
A   10
 C7 
A   11
 C8 
A   12
 C9 
A   13
 C10
A   14
 C11
A   15
 C12
A   16
 C13
A   17
 N3 
A   18
 C14
A   19
 H1 
A   20
 H2 
A   21
 H3 
A   22
 H4 
A   23
 H5 
A   24
 H6 
A   25
 H7 
A   26
 H8 
A   27
 H9 
A   28
 H10
A   29
 H11
A   30
 H12
A   31
 H13
A   32
 H14
A   33
 H15
A   34
 H16
A   35
 H17
A   36
 H18
A   37
 H19
A   38
 H20
A   39
 H21
M  END
>  <ref_pdb>  (74) 
x0451_0A

>  <ref_mols>  (74) 
x0451_0A,x0554_0A,x0556_0A,x0566_0A,x0310_0A,x0416_0A

>  <original SMILES>  (74) 
CC(C)CN(C(N)=O)[C@H]1CCCc2cccnc21

>  <rationale>  (74) 
info info set:ROCS-shape_Q1;Warhead nanÅ to Cys110:SG; hbond:S87+S125; hydroph_interaction:Y89+P107+A110; 

>  <∆∆G>  (74) 
-8.601743

>  <comRMSD>  (74) 
0.399149

>  <ROCS_TanimotoCombo>  (74) 
0.429

>  <ROCS_ShapeTanimoto>  (74) 
0.303

>  <ROCS_ColorTanimoto>  (74) 
0.126

>  <distance>  (74) 
nan

$$$$
EN300_624594
     RDKit          3D

 35 36  0  0  0  0  0  0  0  0999 V2000
   10.7340   15.8880   21.9220 C   0  0  0  0  0  0  0  0  0  0  0  0
   11.3900   14.5340   21.7680 C   0  0  0  0  0  0  0  0  0  0  0  0
   12.5320   14.3680   22.7020 C   0  0  0  0  0  0  0  0  0  0  0  0
   11.8480   14.4530   20.2960 C   0  0  0  0  0  0  0  0  0  0  0  0
   10.5010   13.4710   22.1840 O   0  0  0  0  0  0  0  0  0  0  0  0
   10.3370   13.2150   23.5070 C   0  0  0  0  0  0  0  0  0  0  0  0
   10.7180   13.9800   24.3880 O   0  0  0  0  0  0  0  0  0  0  0  0
    9.7110   12.0600   23.8070 N   0  0  0  0  0  0  0  0  0  0  0  0
   10.0880   10.8400   23.3150 C   0  0  0  0  0  0  0  0  0  0  0  0
    9.2020    9.7460   23.8280 C   0  0  0  0  0  0  0  0  0  0  0  0
    9.5070    8.3140   23.3710 C   0  0  0  0  0  0  0  0  0  0  0  0
    8.3470    7.5250   22.7660 C   0  0  0  0  0  0  0  0  0  0  0  0
    8.4320    6.1010   22.9980 N   0  0  0  0  0  0  0  0  0  0  0  0
    8.1620   10.4440   24.7540 C   0  0  0  0  0  0  0  0  0  0  0  0
    6.9790   10.0440   25.6180 C   0  0  0  0  0  0  0  0  0  0  0  0
    6.3160   11.1950   26.3270 C   0  0  0  0  0  0  0  0  0  0  0  0
    6.7710   12.5030   26.1880 C   0  0  0  0  0  0  0  0  0  0  0  0
    6.1440   13.4890   26.8470 F   0  0  0  0  0  0  0  0  0  0  0  0
    7.8740   12.8060   25.3700 C   0  0  0  0  0  0  0  0  0  0  0  0
    8.5700   11.8130   24.6580 C   0  0  0  0  0  0  0  0  0  0  0  0
   10.3150   16.0010   22.9260 H   0  0  0  0  0  0  0  0  0  0  0  0
    9.9320   16.0140   21.1890 H   0  0  0  0  0  0  0  0  0  0  0  0
   11.4610   16.6920   21.7740 H   0  0  0  0  0  0  0  0  0  0  0  0
   12.3750   14.5620   23.7580 H   0  0  0  0  0  0  0  0  0  0  0  0
   13.3430   15.0310   22.3990 H   0  0  0  0  0  0  0  0  0  0  0  0
   12.9000   13.3400   22.6400 H   0  0  0  0  0  0  0  0  0  0  0  0
   12.4480   15.3290   20.0220 H   0  0  0  0  0  0  0  0  0  0  0  0
   10.9880   14.4090   19.6180 H   0  0  0  0  0  0  0  0  0  0  0  0
   12.4510   13.5750   20.0930 H   0  0  0  0  0  0  0  0  0  0  0  0
   10.9390   10.7260   22.6330 H   0  0  0  0  0  0  0  0  0  0  0  0
    7.9640    5.5090   22.3160 H   0  0  0  0  0  0  0  0  0  0  0  0
    9.3350    5.7780   23.3090 H   0  0  0  0  0  0  0  0  0  0  0  0
    6.6010    9.0440   25.7530 H   0  0  0  0  0  0  0  0  0  0  0  0
    5.4630   10.9180   26.9520 H   0  0  0  0  0  0  0  0  0  0  0  0
    8.1930   13.8510   25.2930 H   0  0  0  0  0  0  0  0  0  0  0  0
  1  2  1  0
  2  3  1  0
  2  4  1  0
  2  5  1  0
  5  6  1  0
  6  7  2  0
  6  8  1  0
  8  9  1  0
  9 10  2  0
 10 11  1  0
 11 12  3  0
 12 13  1  0
 10 14  1  0
 14 15  2  0
 15 16  1  0
 16 17  2  0
 17 18  1  0
 17 19  1  0
 19 20  2  0
 20  8  1  0
 20 14  1  0
  1 21  1  0
  1 22  1  0
  1 23  1  0
  3 24  1  0
  3 25  1  0
  3 26  1  0
  4 27  1  0
  4 28  1  0
  4 29  1  0
  9 30  1  0
 13 31  1  0
 13 32  1  0
 15 33  1  0
 16 34  1  0
 19 35  1  0
A    1
 C1 
A    2
 C2 
A    3
 C3 
A    4
 C4 
A    5
 O1 
A    6
 C5 
A    7
 O2 
A    8
 N1 
A    9
 C6 
A   10
 C7 
A   11
 C8 
A   12
 C9 
A   13
 N2 
A   14
 C10
A   15
 C11
A   16
 C12
A   17
 C13
A   18
 F1 
A   19
 C14
A   20
 C15
A   21
 H1 
A   22
 H2 
A   23
 H3 
A   24
 H4 
A   25
 H5 
A   26
 H6 
A   27
 H7 
A   28
 H8 
A   29
 H9 
A   30
 H10
A   31
 H11
A   32
 H12
A   33
 H13
A   34
 H14
A   35
 H15
M  END
>  <ref_pdb>  (75) 
x0451_0A

>  <ref_mols>  (75) 
x0451_0A,x0554_0A,x0556_0A,x0566_0A,x0310_0A,x0416_0A

>  <original SMILES>  (75) 
CC(C)(C)OC(=O)n1cc(C#CN)c2ccc(F)cc21

>  <rationale>  (75) 
info info set:ROCS-BB-0RB;Warhead nanÅ to Cys110:SG; hbond:D109; hydroph_interaction:Y89+V124+D109; 

>  <∆∆G>  (75) 
-8.601446

>  <comRMSD>  (75) 
0.439051

>  <ROCS_TanimotoCombo>  (75) 
0.485

>  <ROCS_ShapeTanimoto>  (75) 
0.351

>  <ROCS_ColorTanimoto>  (75) 
0.133

>  <distance>  (75) 
nan

$$$$
Z57841819
     RDKit          3D

 34 35  0  0  0  0  0  0  0  0999 V2000
    9.3490    8.3090   23.0340 C   0  0  0  0  0  0  0  0  0  0  0  0
   10.2660    9.2510   23.7790 C   0  0  0  0  0  0  0  0  0  0  0  0
    9.5590   10.4530   24.1400 N   0  0  0  0  0  0  0  0  0  0  0  0
    9.9490   11.7230   23.8640 C   0  0  0  0  0  0  0  0  0  0  0  0
   11.2130   12.0110   23.1490 C   0  0  2  0  0  0  0  0  0  0  0  0
   12.3700   12.1990   24.1150 C   0  0  0  0  0  0  0  0  0  0  0  0
   10.9760   13.1870   22.3410 N   0  0  0  0  0  0  0  0  0  0  0  0
   11.0800   14.4550   22.8480 C   0  0  0  0  0  0  0  0  0  0  0  0
   11.5780   15.4690   21.8540 C   0  0  0  0  0  0  0  0  0  0  0  0
   10.7890   14.7490   24.0050 O   0  0  0  0  0  0  0  0  0  0  0  0
    9.0760   12.6110   24.3100 N   0  0  0  0  0  0  0  0  0  0  0  0
    8.0980   11.8670   24.9100 C   0  0  0  0  0  0  0  0  0  0  0  0
    6.9300   12.2740   25.5630 C   0  0  0  0  0  0  0  0  0  0  0  0
    6.0870   11.3030   26.1060 C   0  0  0  0  0  0  0  0  0  0  0  0
    6.4060    9.9640   25.9960 C   0  0  0  0  0  0  0  0  0  0  0  0
    7.5680    9.5500   25.3460 C   0  0  0  0  0  0  0  0  0  0  0  0
    8.3830   10.5170   24.8190 C   0  0  0  0  0  0  0  0  0  0  0  0
    9.5360    8.4140   21.9720 H   0  0  0  0  0  0  0  0  0  0  0  0
    8.3000    8.5460   23.2220 H   0  0  0  0  0  0  0  0  0  0  0  0
    9.5000    7.2700   23.2930 H   0  0  0  0  0  0  0  0  0  0  0  0
   10.6770    8.7910   24.6770 H   0  0  0  0  0  0  0  0  0  0  0  0
   11.1170    9.5270   23.1540 H   0  0  0  0  0  0  0  0  0  0  0  0
   11.4630   11.1740   22.5160 H   0  0  0  0  0  0  0  0  0  0  0  0
   12.1910   13.0430   24.7860 H   0  0  0  0  0  0  0  0  0  0  0  0
   12.5090   11.2980   24.7250 H   0  0  0  0  0  0  0  0  0  0  0  0
   13.3120   12.3840   23.5860 H   0  0  0  0  0  0  0  0  0  0  0  0
   11.1650   13.0130   21.3550 H   0  0  0  0  0  0  0  0  0  0  0  0
   12.6640   15.3610   21.7500 H   0  0  0  0  0  0  0  0  0  0  0  0
   11.3460   16.4700   22.2140 H   0  0  0  0  0  0  0  0  0  0  0  0
   11.1250   15.3280   20.8700 H   0  0  0  0  0  0  0  0  0  0  0  0
    6.6920   13.3280   25.6420 H   0  0  0  0  0  0  0  0  0  0  0  0
    5.1770   11.6030   26.6150 H   0  0  0  0  0  0  0  0  0  0  0  0
    5.7350    9.2330   26.4250 H   0  0  0  0  0  0  0  0  0  0  0  0
    7.8280    8.5080   25.2570 H   0  0  0  0  0  0  0  0  0  0  0  0
  1  2  1  0
  2  3  1  0
  3  4  1  0
  4  5  1  0
  5  6  1  0
  5  7  1  0
  7  8  1  0
  8  9  1  0
  8 10  2  0
  4 11  2  0
 11 12  1  0
 12 13  2  0
 13 14  1  0
 14 15  2  0
 15 16  1  0
 16 17  2  0
 17  3  1  0
 17 12  1  0
  1 18  1  0
  1 19  1  0
  1 20  1  0
  2 21  1  0
  2 22  1  0
  5 23  1  6
  6 24  1  0
  6 25  1  0
  6 26  1  0
  7 27  1  0
  9 28  1  0
  9 29  1  0
  9 30  1  0
 13 31  1  0
 14 32  1  0
 15 33  1  0
 16 34  1  0
A    1
 C1 
A    2
 C2 
A    3
 N1 
A    4
 C3 
A    5
 C4 
A    6
 C5 
A    7
 N2 
A    8
 C6 
A    9
 C7 
A   10
 O1 
A   11
 N3 
A   12
 C8 
A   13
 C9 
A   14
 C10
A   15
 C11
A   16
 C12
A   17
 C13
A   18
 H1 
A   19
 H2 
A   20
 H3 
A   21
 H4 
A   22
 H5 
A   23
 H6 
A   24
 H7 
A   25
 H8 
A   26
 H9 
A   27
 H10
A   28
 H11
A   29
 H12
A   30
 H13
A   31
 H14
A   32
 H15
A   33
 H16
A   34
 H17
M  END
>  <ref_pdb>  (76) 
x0451_0A

>  <ref_mols>  (76) 
x0451_0A,x0554_0A,x0556_0A,x0566_0A,x0310_0A,x0416_0A

>  <original SMILES>  (76) 
CCn1c([C@H](C)NC(C)=O)nc2ccccc21

>  <rationale>  (76) 
info info set:ROCS-shape_Q1;Warhead nanÅ to Cys110:SG; hbond:S125; hydroph_interaction:Y89+A110+V124+D109; 

>  <∆∆G>  (76) 
-8.595714

>  <comRMSD>  (76) 
0.547902

>  <ROCS_TanimotoCombo>  (76) 
0.464

>  <ROCS_ShapeTanimoto>  (76) 
0.32

>  <ROCS_ColorTanimoto>  (76) 
0.144

>  <distance>  (76) 
nan

$$$$
EN300_764395
     RDKit          3D

 39 41  0  0  0  0  0  0  0  0999 V2000
   11.7720   14.4350   19.7080 C   0  0  0  0  0  0  0  0  0  0  0  0
   11.3200   15.2830   20.8540 C   0  0  0  0  0  0  0  0  0  0  0  0
   10.3520   16.4400   20.5700 C   0  0  0  0  0  0  0  0  0  0  0  0
   12.5470   15.8440   21.4780 C   0  0  0  0  0  0  0  0  0  0  0  0
   10.8210   14.5120   22.0330 C   0  0  0  0  0  0  0  0  0  0  0  0
   11.1190   13.1680   22.5600 C   0  0  0  0  0  0  0  0  0  0  0  0
   10.3700   12.9390   23.6350 N   0  0  0  0  0  0  0  0  0  0  0  0
   10.2780   11.7400   24.4600 C   0  0  2  0  0  0  0  0  0  0  0  0
   10.6560   10.6280   23.6680 C   0  0  0  0  0  0  0  0  0  0  0  0
   10.0700    9.3570   23.8360 C   0  0  0  0  0  0  0  0  0  0  0  0
    8.7950    9.3300   24.5520 N   0  0  0  0  0  0  0  0  0  0  0  0
    8.2620   10.3870   25.0550 C   0  0  0  0  0  0  0  0  0  0  0  0
    6.8860   10.3090   25.6750 C   0  0  0  0  0  0  0  0  0  0  0  0
    6.3220   11.5620   26.2380 C   0  0  0  0  0  0  0  0  0  0  0  0
    7.0150   12.7580   26.2080 C   0  0  0  0  0  0  0  0  0  0  0  0
    8.2970   12.7770   25.6240 C   0  0  0  0  0  0  0  0  0  0  0  0
    8.9050   11.6230   25.0610 C   0  0  0  0  0  0  0  0  0  0  0  0
    9.6390   14.0510   23.8760 N   0  0  0  0  0  0  0  0  0  0  0  0
    9.9000   15.0080   22.9240 N   0  0  0  0  0  0  0  0  0  0  0  0
   12.3580   15.0480   19.0170 H   0  0  0  0  0  0  0  0  0  0  0  0
   10.9310   13.9750   19.1800 H   0  0  0  0  0  0  0  0  0  0  0  0
   12.4120   13.6490   20.0890 H   0  0  0  0  0  0  0  0  0  0  0  0
   10.1150   16.6730   19.5370 H   0  0  0  0  0  0  0  0  0  0  0  0
   10.7590   17.3590   20.9890 H   0  0  0  0  0  0  0  0  0  0  0  0
    9.3910   16.2400   21.0520 H   0  0  0  0  0  0  0  0  0  0  0  0
   13.0820   15.0810   22.0630 H   0  0  0  0  0  0  0  0  0  0  0  0
   12.1870   16.5970   22.1610 H   0  0  0  0  0  0  0  0  0  0  0  0
   13.2460   16.2750   20.7700 H   0  0  0  0  0  0  0  0  0  0  0  0
   11.8290   12.4630   22.1380 H   0  0  0  0  0  0  0  0  0  0  0  0
   11.0080   11.8750   25.2680 H   0  0  0  0  0  0  0  0  0  0  0  0
   11.7340   10.5460   23.5760 H   0  0  0  0  0  0  0  0  0  0  0  0
   10.3610   10.9200   22.6560 H   0  0  0  0  0  0  0  0  0  0  0  0
   10.7870    8.7160   24.3630 H   0  0  0  0  0  0  0  0  0  0  0  0
    9.9080    8.8690   22.8630 H   0  0  0  0  0  0  0  0  0  0  0  0
    8.1090    8.6370   24.2520 H   0  0  0  0  0  0  0  0  0  0  0  0
    6.2990    9.3960   25.7290 H   0  0  0  0  0  0  0  0  0  0  0  0
    5.3300   11.5330   26.6890 H   0  0  0  0  0  0  0  0  0  0  0  0
    6.6160   13.6820   26.6170 H   0  0  0  0  0  0  0  0  0  0  0  0
    8.8300   13.7250   25.6120 H   0  0  0  0  0  0  0  0  0  0  0  0
  1  2  1  0
  2  3  1  0
  2  4  1  0
  2  5  1  0
  5  6  2  0
  6  7  1  0
  7  8  1  0
  8  9  1  0
  9 10  1  0
 10 11  1  0
 11 12  1  0
 12 13  2  0
 13 14  1  0
 14 15  2  0
 15 16  1  0
 16 17  2  0
  7 18  1  0
 18 19  2  0
 19  5  1  0
 17  8  1  0
 17 12  1  0
  1 20  1  0
  1 21  1  0
  1 22  1  0
  3 23  1  0
  3 24  1  0
  3 25  1  0
  4 26  1  0
  4 27  1  0
  4 28  1  0
  6 29  1  0
  8 30  1  1
  9 31  1  0
  9 32  1  0
 10 33  1  0
 10 34  1  0
 11 35  1  0
 13 36  1  0
 14 37  1  0
 15 38  1  0
 16 39  1  0
A    1
 C1 
A    2
 C2 
A    3
 C3 
A    4
 C4 
A    5
 C5 
A    6
 C6 
A    7
 N1 
A    8
 C7 
A    9
 C8 
A   10
 C9 
A   11
 N2 
A   12
 C10
A   13
 C11
A   14
 C12
A   15
 C13
A   16
 C14
A   17
 C15
A   18
 N3 
A   19
 N4 
A   20
 H1 
A   21
 H2 
A   22
 H3 
A   23
 H4 
A   24
 H5 
A   25
 H6 
A   26
 H7 
A   27
 H8 
A   28
 H9 
A   29
 H10
A   30
 H11
A   31
 H12
A   32
 H13
A   33
 H14
A   34
 H15
A   35
 H16
A   36
 H17
A   37
 H18
A   38
 H19
A   39
 H20
M  END
>  <ref_pdb>  (77) 
x0451_0A

>  <ref_mols>  (77) 
x0451_0A,x0554_0A,x0556_0A,x0566_0A,x0310_0A,x0416_0A

>  <original SMILES>  (77) 
CC(C)(C)c1cn([C@@H]2CCNc3ccccc32)nn1

>  <rationale>  (77) 
info info set:ROCS-BB-1RB;Warhead nanÅ to Cys110:SG; hbond:S87; hydroph_interaction:Y89; 

>  <∆∆G>  (77) 
-8.587828

>  <comRMSD>  (77) 
0.53736

>  <ROCS_TanimotoCombo>  (77) 
0.507

>  <ROCS_ShapeTanimoto>  (77) 
0.339

>  <ROCS_ColorTanimoto>  (77) 
0.168

>  <distance>  (77) 
nan

$$$$
EN300_7438944
     RDKit          3D

 41 42  0  0  0  0  0  0  0  0999 V2000
   10.8260   15.9010   22.1400 C   0  0  0  0  0  0  0  0  0  0  0  0
   11.1050   14.4620   21.7810 C   0  0  0  0  0  0  0  0  0  0  0  0
   11.3120   14.3200   20.2620 C   0  0  0  0  0  0  0  0  0  0  0  0
   12.3970   14.0710   22.4740 C   0  0  0  0  0  0  0  0  0  0  0  0
   10.1220   13.5720   22.3890 O   0  0  0  0  0  0  0  0  0  0  0  0
   10.0780   13.5190   23.7540 C   0  0  0  0  0  0  0  0  0  0  0  0
   10.7620   14.3950   24.6520 O   0  0  0  0  0  0  0  0  0  0  0  0
    9.2560   12.4820   24.2790 N   0  0  0  0  0  0  0  0  0  0  0  0
    8.8160   12.6440   25.6560 C   0  0  0  0  0  0  0  0  0  0  0  0
    7.8120   11.5180   25.8290 C   0  0  0  0  0  0  0  0  0  0  0  0
    7.8890   10.6100   24.6660 C   0  0  2  0  0  0  0  0  0  0  0  0
    9.0410    9.6560   24.6930 C   0  0  1  0  0  0  0  0  0  0  0  0
    8.6800    8.3340   24.4110 N   0  0  0  0  0  0  0  0  0  0  0  0
    9.8530   10.0700   23.6850 C   0  0  0  0  0  0  0  0  0  0  0  0
    9.7920    9.0010   22.6130 C   0  0  0  0  0  0  0  0  0  0  0  0
   11.1580   10.4290   24.0060 C   0  0  0  0  0  0  0  0  0  0  0  0
    8.8300   11.3110   23.6590 C   0  0  2  0  0  0  0  0  0  0  0  0
   10.8360   16.0200   23.2280 H   0  0  0  0  0  0  0  0  0  0  0  0
    9.8490   16.2290   21.7730 H   0  0  0  0  0  0  0  0  0  0  0  0
   11.5920   16.5610   21.7220 H   0  0  0  0  0  0  0  0  0  0  0  0
   10.5930   13.7630   19.6820 H   0  0  0  0  0  0  0  0  0  0  0  0
   11.3960   15.3110   19.8030 H   0  0  0  0  0  0  0  0  0  0  0  0
   12.2750   13.8280   20.0930 H   0  0  0  0  0  0  0  0  0  0  0  0
   12.7170   13.0680   22.1690 H   0  0  0  0  0  0  0  0  0  0  0  0
   12.2880   14.0470   23.5630 H   0  0  0  0  0  0  0  0  0  0  0  0
   13.1880   14.7940   22.2590 H   0  0  0  0  0  0  0  0  0  0  0  0
    9.7190   12.7780   26.2370 H   0  0  0  0  0  0  0  0  0  0  0  0
    8.2780   13.5940   25.7530 H   0  0  0  0  0  0  0  0  0  0  0  0
    6.7990   11.9230   25.9200 H   0  0  0  0  0  0  0  0  0  0  0  0
    8.0240   10.9640   26.7430 H   0  0  0  0  0  0  0  0  0  0  0  0
    6.9520   10.1820   24.3230 H   0  0  0  0  0  0  0  0  0  0  0  0
    9.5750    9.7030   25.6090 H   0  0  0  0  0  0  0  0  0  0  0  0
    9.1550    7.9070   23.6180 H   0  0  0  0  0  0  0  0  0  0  0  0
    8.8370    7.6950   25.1960 H   0  0  0  0  0  0  0  0  0  0  0  0
   10.4510    8.1720   22.8850 H   0  0  0  0  0  0  0  0  0  0  0  0
    8.7870    8.5860   22.5260 H   0  0  0  0  0  0  0  0  0  0  0  0
   10.1170    9.3820   21.6540 H   0  0  0  0  0  0  0  0  0  0  0  0
   11.6150   11.0180   23.2040 H   0  0  0  0  0  0  0  0  0  0  0  0
   11.1750   11.0620   24.9010 H   0  0  0  0  0  0  0  0  0  0  0  0
   11.7950    9.5650   24.2110 H   0  0  0  0  0  0  0  0  0  0  0  0
    8.3070   11.5460   22.7830 H   0  0  0  0  0  0  0  0  0  0  0  0
  1  2  1  0
  2  3  1  0
  2  4  1  0
  2  5  1  0
  5  6  1  0
  6  7  2  0
  6  8  1  0
  8  9  1  0
  9 10  1  0
 10 11  1  0
 11 12  1  0
 12 13  1  0
 12 14  1  0
 14 15  1  0
 14 16  1  0
 14 17  1  0
 17  8  1  0
 17 11  1  0
  1 18  1  0
  1 19  1  0
  1 20  1  0
  3 21  1  0
  3 22  1  0
  3 23  1  0
  4 24  1  0
  4 25  1  0
  4 26  1  0
  9 27  1  0
  9 28  1  0
 10 29  1  0
 10 30  1  0
 11 31  1  6
 12 32  1  1
 13 33  1  0
 13 34  1  0
 15 35  1  0
 15 36  1  0
 15 37  1  0
 16 38  1  0
 16 39  1  0
 16 40  1  0
 17 41  1  6
A    1
 C1 
A    2
 C2 
A    3
 C3 
A    4
 C4 
A    5
 O1 
A    6
 C5 
A    7
 O2 
A    8
 N1 
A    9
 C6 
A   10
 C7 
A   11
 C8 
A   12
 C9 
A   13
 N2 
A   14
 C10
A   15
 C11
A   16
 C12
A   17
 C13
A   18
 H1 
A   19
 H2 
A   20
 H3 
A   21
 H4 
A   22
 H5 
A   23
 H6 
A   24
 H7 
A   25
 H8 
A   26
 H9 
A   27
 H10
A   28
 H11
A   29
 H12
A   30
 H13
A   31
 H14
A   32
 H15
A   33
 H16
A   34
 H17
A   35
 H18
A   36
 H19
A   37
 H20
A   38
 H21
A   39
 H22
A   40
 H23
A   41
 H24
M  END
>  <ref_pdb>  (78) 
x0451_0A

>  <ref_mols>  (78) 
x0451_0A,x0554_0A,x0556_0A,x0566_0A,x0310_0A,x0416_0A

>  <original SMILES>  (78) 
CC(C)(C)OC(=O)N1CC[C@@H]2[C@@H](N)C(C)(C)[C@@H]21

>  <rationale>  (78) 
info info set:ROCS-BB-0RB;Warhead nanÅ to Cys110:SG; hbond:E106; hydroph_interaction:Y89+A110+V124; 

>  <∆∆G>  (78) 
-8.586899

>  <comRMSD>  (78) 
0.687543

>  <ROCS_TanimotoCombo>  (78) 
0.496

>  <ROCS_ShapeTanimoto>  (78) 
0.303

>  <ROCS_ColorTanimoto>  (78) 
0.193

>  <distance>  (78) 
nan

$$$$
Z595929190
     RDKit          3D

 46 48  0  0  0  0  0  0  0  0999 V2000
   14.5090   17.1390   18.3690 C   0  0  0  0  0  0  0  0  0  0  0  0
   13.5240   16.3560   19.1450 C   0  0  0  0  0  0  0  0  0  0  0  0
   12.4620   15.6680   18.5850 C   0  0  0  0  0  0  0  0  0  0  0  0
   11.7620   15.0590   19.6850 C   0  0  0  0  0  0  0  0  0  0  0  0
   12.3840   15.3780   20.8690 C   0  0  0  0  0  0  0  0  0  0  0  0
   11.8690   14.9210   22.2620 C   0  0  2  0  0  0  0  0  0  0  0  0
   12.8230   14.1040   23.0450 C   0  0  0  0  0  0  0  0  0  0  0  0
   10.8300   13.9570   22.0650 N   0  0  0  0  0  0  0  0  0  0  0  0
   10.5130   13.3120   23.3240 C   0  0  0  0  0  0  0  0  0  0  0  0
   10.2300   13.9380   24.3310 O   0  0  0  0  0  0  0  0  0  0  0  0
   10.6180   12.1800   23.1690 N   0  0  0  0  0  0  0  0  0  0  0  0
    9.5930   11.4710   23.8990 C   0  0  0  0  0  0  0  0  0  0  0  0
    9.3440    9.9990   23.6700 C   0  0  0  0  0  0  0  0  0  0  0  0
    8.2660    9.4120   24.5050 C   0  0  0  0  0  0  0  0  0  0  0  0
    7.4390   10.1890   25.5200 C   0  0  0  0  0  0  0  0  0  0  0  0
    7.7720   11.5340   25.6270 C   0  0  0  0  0  0  0  0  0  0  0  0
    7.0570   12.4020   26.5710 C   0  0  0  0  0  0  0  0  0  0  0  0
    5.7190   11.9600   26.9220 N   0  0  0  0  0  0  0  0  0  0  0  0
    5.5010   10.6990   27.4240 C   0  0  0  0  0  0  0  0  0  0  0  0
    4.2940   10.4130   28.0490 C   0  0  0  0  0  0  0  0  0  0  0  0
    3.3730   11.4460   28.1190 C   0  0  0  0  0  0  0  0  0  0  0  0
    3.5550   12.6420   27.6650 N   0  0  0  0  0  0  0  0  0  0  0  0
    4.7530   12.9610   27.0590 C   0  0  0  0  0  0  0  0  0  0  0  0
    4.9690   14.1030   26.6580 O   0  0  0  0  0  0  0  0  0  0  0  0
    8.8000   12.1430   24.8540 C   0  0  0  0  0  0  0  0  0  0  0  0
   13.5050   16.1930   20.5510 O   0  0  0  0  0  0  0  0  0  0  0  0
   14.7720   18.0540   18.9010 H   0  0  0  0  0  0  0  0  0  0  0  0
   15.4170   16.5740   18.1720 H   0  0  0  0  0  0  0  0  0  0  0  0
   14.0910   17.4240   17.4030 H   0  0  0  0  0  0  0  0  0  0  0  0
   12.1960   15.5930   17.5330 H   0  0  0  0  0  0  0  0  0  0  0  0
   10.8710   14.4570   19.4870 H   0  0  0  0  0  0  0  0  0  0  0  0
   11.4400   15.6840   22.8900 H   0  0  0  0  0  0  0  0  0  0  0  0
   13.7420   14.5720   23.2970 H   0  0  0  0  0  0  0  0  0  0  0  0
   12.4730   13.7220   24.0060 H   0  0  0  0  0  0  0  0  0  0  0  0
   13.0220   13.2000   22.4550 H   0  0  0  0  0  0  0  0  0  0  0  0
   10.9550   13.2560   21.3300 H   0  0  0  0  0  0  0  0  0  0  0  0
   11.5740   11.8230   23.2190 H   0  0  0  0  0  0  0  0  0  0  0  0
    9.9230    9.4130   22.9430 H   0  0  0  0  0  0  0  0  0  0  0  0
    8.0760    8.3540   24.3670 H   0  0  0  0  0  0  0  0  0  0  0  0
    6.6720    9.6280   26.0660 H   0  0  0  0  0  0  0  0  0  0  0  0
    7.6520   12.5370   27.4450 H   0  0  0  0  0  0  0  0  0  0  0  0
    6.9600   13.4010   26.1440 H   0  0  0  0  0  0  0  0  0  0  0  0
    6.2860    9.9490   27.3130 H   0  0  0  0  0  0  0  0  0  0  0  0
    4.0510    9.4440   28.4670 H   0  0  0  0  0  0  0  0  0  0  0  0
    2.4150   11.1990   28.6060 H   0  0  0  0  0  0  0  0  0  0  0  0
    8.9770   13.2100   25.0250 H   0  0  0  0  0  0  0  0  0  0  0  0
  1  2  1  0
  2  3  2  0
  3  4  1  0
  4  5  2  0
  5  6  1  0
  6  7  1  0
  6  8  1  0
  8  9  1  0
  9 10  2  0
  9 11  1  0
 11 12  1  0
 12 13  2  0
 13 14  1  0
 14 15  2  0
 15 16  1  0
 16 17  1  0
 17 18  1  0
 18 19  1  0
 19 20  2  0
 20 21  1  0
 21 22  2  0
 22 23  1  0
 23 24  2  0
 16 25  2  0
  5 26  1  0
 26  2  1  0
 25 12  1  0
 23 18  1  0
  1 27  1  0
  1 28  1  0
  1 29  1  0
  3 30  1  0
  4 31  1  0
  6 32  1  1
  7 33  1  0
  7 34  1  0
  7 35  1  0
  8 36  1  0
 11 37  1  0
 13 38  1  0
 14 39  1  0
 15 40  1  0
 17 41  1  0
 17 42  1  0
 19 43  1  0
 20 44  1  0
 21 45  1  0
 25 46  1  0
A    1
 C1 
A    2
 C2 
A    3
 C3 
A    4
 C4 
A    5
 C5 
A    6
 C6 
A    7
 C7 
A    8
 N1 
A    9
 C8 
A   10
 O1 
A   11
 N2 
A   12
 C9 
A   13
 C10
A   14
 C11
A   15
 C12
A   16
 C13
A   17
 C14
A   18
 N3 
A   19
 C15
A   20
 C16
A   21
 C17
A   22
 N4 
A   23
 C18
A   24
 O2 
A   25
 C19
A   26
 O3 
A   27
 H1 
A   28
 H2 
A   29
 H3 
A   30
 H4 
A   31
 H5 
A   32
 H6 
A   33
 H7 
A   34
 H8 
A   35
 H9 
A   36
 H10
A   37
 H11
A   38
 H12
A   39
 H13
A   40
 H14
A   41
 H15
A   42
 H16
A   43
 H17
A   44
 H18
A   45
 H19
A   46
 H20
M  END
>  <ref_pdb>  (79) 
x0451_0A

>  <ref_mols>  (79) 
x0451_0A,x0554_0A,x0556_0A,x0566_0A,x0310_0A,x0416_0A

>  <original SMILES>  (79) 
Cc1ccc([C@H](C)NC(=O)Nc2cccc(Cn3cccnc3=O)c2)o1

>  <rationale>  (79) 
info info set:ROCS-PPI;Warhead nanÅ to Cys110:SG; hbond:S87+S125; hydroph_interaction:Y89+Y90+D39+H21; pistack:H21; 

>  <∆∆G>  (79) 
-8.582907

>  <comRMSD>  (79) 
0.644267

>  <ROCS_TanimotoCombo>  (79) 
0.555

>  <ROCS_ShapeTanimoto>  (79) 
0.326

>  <ROCS_ColorTanimoto>  (79) 
0.229

>  <distance>  (79) 
nan

$$$$
EN300_12448952
     RDKit          3D

 39 40  0  0  0  0  0  0  0  0999 V2000
    9.5690   15.3640   21.2450 C   0  0  0  0  0  0  0  0  0  0  0  0
   10.9020   14.7270   21.5140 C   0  0  0  0  0  0  0  0  0  0  0  0
   11.9670   15.3250   22.0900 C   0  0  0  0  0  0  0  0  0  0  0  0
   11.4540   14.4520   20.1020 C   0  0  0  0  0  0  0  0  0  0  0  0
   10.8430   13.6090   22.0300 O   0  0  0  0  0  0  0  0  0  0  0  0
   10.4570   13.4420   23.3260 C   0  0  0  0  0  0  0  0  0  0  0  0
   10.6780   14.3350   24.3400 O   0  0  0  0  0  0  0  0  0  0  0  0
    9.8120   12.2520   23.5180 N   0  0  0  0  0  0  0  0  0  0  0  0
   10.4380   10.9670   23.2320 C   0  0  0  0  0  0  0  0  0  0  0  0
    9.7000    9.9430   23.8340 C   0  0  0  0  0  0  0  0  0  0  0  0
   10.4530    9.1890   24.5090 C   0  0  0  0  0  0  0  0  0  0  0  0
    9.1480    8.8580   22.9510 C   0  0  0  0  0  0  0  0  0  0  0  0
    8.6590   10.6610   24.6760 C   0  0  0  0  0  0  0  0  0  0  0  0
    7.6360   10.1120   25.6300 C   0  0  0  0  0  0  0  0  0  0  0  0
    6.7200   11.1160   26.3430 C   0  0  0  0  0  0  0  0  0  0  0  0
    6.9030   12.4690   26.0620 C   0  0  0  0  0  0  0  0  0  0  0  0
    5.7900   13.7220   26.9460 Br  0  0  0  0  0  0  0  0  0  0  0  0
    7.8830   12.9250   25.1550 C   0  0  0  0  0  0  0  0  0  0  0  0
    8.7350   12.0220   24.4840 C   0  0  0  0  0  0  0  0  0  0  0  0
    9.2860   15.2850   20.1920 H   0  0  0  0  0  0  0  0  0  0  0  0
    8.8080   14.8630   21.8470 H   0  0  0  0  0  0  0  0  0  0  0  0
    9.6220   16.4220   21.5170 H   0  0  0  0  0  0  0  0  0  0  0  0
   12.8880   15.5110   21.5530 H   0  0  0  0  0  0  0  0  0  0  0  0
   11.7380   16.2880   22.5560 H   0  0  0  0  0  0  0  0  0  0  0  0
   12.2980   14.6900   22.9180 H   0  0  0  0  0  0  0  0  0  0  0  0
   12.3370   13.8130   20.1540 H   0  0  0  0  0  0  0  0  0  0  0  0
   10.7140   13.9400   19.4830 H   0  0  0  0  0  0  0  0  0  0  0  0
   11.7400   15.3790   19.5950 H   0  0  0  0  0  0  0  0  0  0  0  0
   10.5090   10.7530   22.1940 H   0  0  0  0  0  0  0  0  0  0  0  0
   11.4600   10.9790   23.6200 H   0  0  0  0  0  0  0  0  0  0  0  0
   10.9130    9.5610   25.4030 H   0  0  0  0  0  0  0  0  0  0  0  0
    9.8150    8.3440   24.7250 H   0  0  0  0  0  0  0  0  0  0  0  0
   11.2590    8.8100   23.8850 H   0  0  0  0  0  0  0  0  0  0  0  0
    9.6040    8.8930   21.9560 H   0  0  0  0  0  0  0  0  0  0  0  0
    9.3640    7.8660   23.3630 H   0  0  0  0  0  0  0  0  0  0  0  0
    8.0810    8.9350   22.8830 H   0  0  0  0  0  0  0  0  0  0  0  0
    7.6390    9.0320   25.7400 H   0  0  0  0  0  0  0  0  0  0  0  0
    5.9540   10.8040   27.0460 H   0  0  0  0  0  0  0  0  0  0  0  0
    7.9740   13.9930   24.9800 H   0  0  0  0  0  0  0  0  0  0  0  0
  1  2  1  0
  2  3  1  0
  2  4  1  0
  2  5  1  0
  5  6  1  0
  6  7  2  0
  6  8  1  0
  8  9  1  0
  9 10  1  0
 10 11  1  0
 10 12  1  0
 10 13  1  0
 13 14  2  0
 14 15  1  0
 15 16  2  0
 16 17  1  0
 16 18  1  0
 18 19  2  0
 19  8  1  0
 19 13  1  0
  1 20  1  0
  1 21  1  0
  1 22  1  0
  3 23  1  0
  3 24  1  0
  3 25  1  0
  4 26  1  0
  4 27  1  0
  4 28  1  0
  9 29  1  0
  9 30  1  0
 11 31  1  0
 11 32  1  0
 11 33  1  0
 12 34  1  0
 12 35  1  0
 12 36  1  0
 14 37  1  0
 15 38  1  0
 18 39  1  0
A    1
 C1 
A    2
 C2 
A    3
 C3 
A    4
 C4 
A    5
 O1 
A    6
 C5 
A    7
 O2 
A    8
 N1 
A    9
 C6 
A   10
 C7 
A   11
 C8 
A   12
 C9 
A   13
 C10
A   14
 C11
A   15
 C12
A   16
 C13
A   17
BR1 
A   18
 C14
A   19
 C15
A   20
 H1 
A   21
 H2 
A   22
 H3 
A   23
 H4 
A   24
 H5 
A   25
 H6 
A   26
 H7 
A   27
 H8 
A   28
 H9 
A   29
 H10
A   30
 H11
A   31
 H12
A   32
 H13
A   33
 H14
A   34
 H15
A   35
 H16
A   36
 H17
A   37
 H18
A   38
 H19
A   39
 H20
M  END
>  <ref_pdb>  (80) 
x0451_0A

>  <ref_mols>  (80) 
x0451_0A,x0554_0A,x0556_0A,x0566_0A,x0310_0A,x0416_0A

>  <original SMILES>  (80) 
CC(C)(C)OC(=O)N1CC(C)(C)c2ccc(Br)cc21

>  <rationale>  (80) 
info info set:ROCS-BB-0RB;Warhead nanÅ to Cys110:SG; hydroph_interaction:Y89+V124+D109; 

>  <∆∆G>  (80) 
-8.582824

>  <comRMSD>  (80) 
0.661347

>  <ROCS_TanimotoCombo>  (80) 
0.482

>  <ROCS_ShapeTanimoto>  (80) 
0.351

>  <ROCS_ColorTanimoto>  (80) 
0.13

>  <distance>  (80) 
nan

$$$$
Z4772960027
     RDKit          3D

 40 41  0  0  0  0  0  0  0  0999 V2000
    6.7040   12.2460   27.3600 C   0  0  0  0  0  0  0  0  0  0  0  0
    7.6750   11.8150   26.3980 N   0  0  0  0  0  0  0  0  0  0  0  0
    8.3820   12.7940   25.6170 C   0  0  0  0  0  0  0  0  0  0  0  0
    8.7330   12.1080   24.2950 C   0  0  2  0  0  0  0  0  0  0  0  0
    8.0810   10.7230   24.3570 C   0  0  1  0  0  0  0  0  0  0  0  0
    8.9060    9.4860   24.0130 C   0  0  0  0  0  0  0  0  0  0  0  0
   10.3960    9.7120   24.0820 C   0  0  0  0  0  0  0  0  0  0  0  0
   10.8030   11.0050   23.4300 C   0  0  0  0  0  0  0  0  0  0  0  0
   10.1550   12.1900   23.9710 N   0  0  0  0  0  0  0  0  0  0  0  0
   10.6280   13.4790   23.6970 C   0  0  0  0  0  0  0  0  0  0  0  0
   10.5610   14.3820   24.5310 O   0  0  0  0  0  0  0  0  0  0  0  0
   11.2180   13.6990   22.3190 C   0  0  0  0  0  0  0  0  0  0  0  0
   11.2090   15.1260   21.7610 C   0  0  0  0  0  0  0  0  0  0  0  0
   12.1800   15.2080   20.5870 C   0  0  0  0  0  0  0  0  0  0  0  0
    9.8300   15.6010   21.3050 C   0  0  0  0  0  0  0  0  0  0  0  0
   11.6850   16.0160   22.7250 O   0  0  0  0  0  0  0  0  0  0  0  0
    7.5220   10.6170   25.7460 C   0  0  0  0  0  0  0  0  0  0  0  0
    6.9910    9.6290   26.2090 O   0  0  0  0  0  0  0  0  0  0  0  0
    6.2630   11.3920   27.8790 H   0  0  0  0  0  0  0  0  0  0  0  0
    5.9160   12.7920   26.8340 H   0  0  0  0  0  0  0  0  0  0  0  0
    7.1820   12.9070   28.0860 H   0  0  0  0  0  0  0  0  0  0  0  0
    7.7490   13.6740   25.4630 H   0  0  0  0  0  0  0  0  0  0  0  0
    9.2770   13.0920   26.1740 H   0  0  0  0  0  0  0  0  0  0  0  0
    8.2000   12.6580   23.5040 H   0  0  0  0  0  0  0  0  0  0  0  0
    7.2470   10.7520   23.6980 H   0  0  0  0  0  0  0  0  0  0  0  0
    8.6450    9.0930   23.0270 H   0  0  0  0  0  0  0  0  0  0  0  0
    8.6600    8.6890   24.7220 H   0  0  0  0  0  0  0  0  0  0  0  0
   10.7170    9.7100   25.1260 H   0  0  0  0  0  0  0  0  0  0  0  0
   10.9090    8.8800   23.5890 H   0  0  0  0  0  0  0  0  0  0  0  0
   11.8870   11.1070   23.5230 H   0  0  0  0  0  0  0  0  0  0  0  0
   10.5730   10.9590   22.3790 H   0  0  0  0  0  0  0  0  0  0  0  0
   12.2490   13.3190   22.3460 H   0  0  0  0  0  0  0  0  0  0  0  0
   10.6420   13.1140   21.6290 H   0  0  0  0  0  0  0  0  0  0  0  0
   11.7780   15.8430   19.7890 H   0  0  0  0  0  0  0  0  0  0  0  0
   13.1290   15.6640   20.8940 H   0  0  0  0  0  0  0  0  0  0  0  0
   12.3860   14.2190   20.1620 H   0  0  0  0  0  0  0  0  0  0  0  0
    9.4560   15.0190   20.4560 H   0  0  0  0  0  0  0  0  0  0  0  0
    9.8770   16.6420   20.9560 H   0  0  0  0  0  0  0  0  0  0  0  0
    9.0940   15.5440   22.1120 H   0  0  0  0  0  0  0  0  0  0  0  0
   11.1730   16.8280   22.6240 H   0  0  0  0  0  0  0  0  0  0  0  0
  1  2  1  0
  2  3  1  0
  3  4  1  0
  4  5  1  0
  5  6  1  0
  6  7  1  0
  7  8  1  0
  8  9  1  0
  9 10  1  0
 10 11  2  0
 10 12  1  0
 12 13  1  0
 13 14  1  0
 13 15  1  0
 13 16  1  0
  5 17  1  0
 17 18  2  0
 17  2  1  0
  9  4  1  0
  1 19  1  0
  1 20  1  0
  1 21  1  0
  3 22  1  0
  3 23  1  0
  4 24  1  6
  5 25  1  6
  6 26  1  0
  6 27  1  0
  7 28  1  0
  7 29  1  0
  8 30  1  0
  8 31  1  0
 12 32  1  0
 12 33  1  0
 14 34  1  0
 14 35  1  0
 14 36  1  0
 15 37  1  0
 15 38  1  0
 15 39  1  0
 16 40  1  0
A    1
 C1 
A    2
 N1 
A    3
 C2 
A    4
 C3 
A    5
 C4 
A    6
 C5 
A    7
 C6 
A    8
 C7 
A    9
 N2 
A   10
 C8 
A   11
 O1 
A   12
 C9 
A   13
 C10
A   14
 C11
A   15
 C12
A   16
 O2 
A   17
 C13
A   18
 O3 
A   19
 H1 
A   20
 H2 
A   21
 H3 
A   22
 H4 
A   23
 H5 
A   24
 H6 
A   25
 H7 
A   26
 H8 
A   27
 H9 
A   28
 H10
A   29
 H11
A   30
 H12
A   31
 H13
A   32
 H14
A   33
 H15
A   34
 H16
A   35
 H17
A   36
 H18
A   37
 H19
A   38
 H20
A   39
 H21
A   40
 H22
M  END
>  <ref_pdb>  (81) 
x0451_0A

>  <ref_mols>  (81) 
x0451_0A,x0554_0A,x0556_0A,x0566_0A,x0310_0A,x0416_0A

>  <original SMILES>  (81) 
CN1C[C@@H]2[C@@H](CCCN2C(=O)CC(C)(C)O)C1=O

>  <rationale>  (81) 
info info set:ROCS-shape_Q1;Warhead nanÅ to Cys110:SG; hbond:S87; hydroph_interaction:Y90; 

>  <∆∆G>  (81) 
-8.581733

>  <comRMSD>  (81) 
0.60614

>  <ROCS_TanimotoCombo>  (81) 
0.462

>  <ROCS_ShapeTanimoto>  (81) 
0.313

>  <ROCS_ColorTanimoto>  (81) 
0.149

>  <distance>  (81) 
nan

$$$$
Z56347374
     RDKit          3D

 28 28  0  0  0  0  0  0  0  0999 V2000
    4.9310   12.0250   27.8240 C   0  0  0  0  0  0  0  0  0  0  0  0
    6.2270   11.7330   27.3390 O   0  0  0  0  0  0  0  0  0  0  0  0
    6.6000   12.3400   26.1760 C   0  0  0  0  0  0  0  0  0  0  0  0
    6.1310   13.4220   25.8490 O   0  0  0  0  0  0  0  0  0  0  0  0
    7.6240   11.6850   25.2780 C   0  0  0  0  0  0  0  0  0  0  0  0
    7.3960   10.1970   25.2510 C   0  0  0  0  0  0  0  0  0  0  0  0
    8.3940    9.4600   24.3700 C   0  0  0  0  0  0  0  0  0  0  0  0
    9.4010   10.1440   23.6770 C   0  0  0  0  0  0  0  0  0  0  0  0
   10.3380    9.3040   22.8290 C   0  0  0  0  0  0  0  0  0  0  0  0
    9.5330   11.5660   23.7720 C   0  0  0  0  0  0  0  0  0  0  0  0
   10.5690   12.2290   23.0630 N   0  0  0  0  0  0  0  0  0  0  0  0
   11.0300   13.5160   23.2810 C   0  0  0  0  0  0  0  0  0  0  0  0
   10.7360   14.2240   24.2440 O   0  0  0  0  0  0  0  0  0  0  0  0
   11.9970   14.0870   22.2070 C   0  0  0  0  0  0  0  0  0  0  0  0
   11.2210   15.2780   21.1310 Cl  0  0  0  0  0  0  0  0  0  0  0  0
    8.6460   12.3050   24.5630 C   0  0  0  0  0  0  0  0  0  0  0  0
    4.1740   11.8460   27.0520 H   0  0  0  0  0  0  0  0  0  0  0  0
    4.9000   13.0870   28.0800 H   0  0  0  0  0  0  0  0  0  0  0  0
    4.7120   11.4540   28.7330 H   0  0  0  0  0  0  0  0  0  0  0  0
    6.5950    9.7030   25.8120 H   0  0  0  0  0  0  0  0  0  0  0  0
    8.3180    8.3780   24.2840 H   0  0  0  0  0  0  0  0  0  0  0  0
   10.9890    9.9190   22.2120 H   0  0  0  0  0  0  0  0  0  0  0  0
    9.7530    8.6640   22.1580 H   0  0  0  0  0  0  0  0  0  0  0  0
   10.9700    8.6850   23.4670 H   0  0  0  0  0  0  0  0  0  0  0  0
   10.7920   11.8820   22.1220 H   0  0  0  0  0  0  0  0  0  0  0  0
   12.8490   14.5810   22.6790 H   0  0  0  0  0  0  0  0  0  0  0  0
   12.3900   13.2880   21.5780 H   0  0  0  0  0  0  0  0  0  0  0  0
    8.7380   13.3830   24.6400 H   0  0  0  0  0  0  0  0  0  0  0  0
  1  2  1  0
  2  3  1  0
  3  4  2  0
  3  5  1  0
  5  6  2  0
  6  7  1  0
  7  8  2  0
  8  9  1  0
  8 10  1  0
 10 11  1  0
 11 12  1  0
 12 13  2  0
 12 14  1  0
 14 15  1  0
 10 16  2  0
 16  5  1  0
  1 17  1  0
  1 18  1  0
  1 19  1  0
  6 20  1  0
  7 21  1  0
  9 22  1  0
  9 23  1  0
  9 24  1  0
 11 25  1  0
 14 26  1  0
 14 27  1  0
 16 28  1  0
A    1
 C1 
A    2
 O1 
A    3
 C2 
A    4
 O2 
A    5
 C3 
A    6
 C4 
A    7
 C5 
A    8
 C6 
A    9
 C7 
A   10
 C8 
A   11
 N1 
A   12
 C9 
A   13
 O3 
A   14
 C10
A   15
CL1 
A   16
 C11
A   17
 H1 
A   18
 H2 
A   19
 H3 
A   20
 H4 
A   21
 H5 
A   22
 H6 
A   23
 H7 
A   24
 H8 
A   25
 H9 
A   26
 H10
A   27
 H11
A   28
 H12
M  END
>  <ref_pdb>  (82) 
x0451_0A

>  <ref_mols>  (82) 
x0451_0A,x0554_0A,x0556_0A,x0566_0A,x0310_0A,x0416_0A

>  <original SMILES>  (82) 
COC(=O)c1ccc(C)c(NC(=O)CCl)c1

>  <rationale>  (82) 
info info set:ROCS-electro;Warhead 4.277897284881907Å to Cys110:SG; hbond:S125; hydroph_interaction:A110+V124; 

>  <∆∆G>  (82) 
-8.568838

>  <comRMSD>  (82) 
0.326172

>  <ROCS_TanimotoCombo>  (82) 
0.457

>  <ROCS_ShapeTanimoto>  (82) 
0.319

>  <ROCS_ColorTanimoto>  (82) 
0.138

>  <distance>  (82) 
4.277897

$$$$
Z355227988
     RDKit          3D

 40 42  0  0  0  0  0  0  0  0999 V2000
    5.1100   12.4580   26.7080 C   0  0  0  0  0  0  0  0  0  0  0  0
    6.4240   12.2780   26.0050 C   0  0  0  0  0  0  0  0  0  0  0  0
    7.2430   13.4110   25.8040 C   0  0  0  0  0  0  0  0  0  0  0  0
    8.5200   13.2230   25.1100 N   0  0  0  0  0  0  0  0  0  0  0  0
    8.8910   11.8990   24.6520 C   0  0  0  0  0  0  0  0  0  0  0  0
   10.1020   11.7440   23.9920 C   0  0  0  0  0  0  0  0  0  0  0  0
   11.1760   13.1210   23.7380 S   0  0  0  0  0  6  0  0  0  0  0  0
   10.7850   14.1840   24.6390 O   0  0  0  0  0  0  0  0  0  0  0  0
   12.5290   12.6130   23.6960 O   0  0  0  0  0  0  0  0  0  0  0  0
   10.7900   13.6590   22.1840 N   0  0  0  0  0  0  0  0  0  0  0  0
    9.6980   14.5220   22.1100 C   0  0  0  0  0  0  0  0  0  0  0  0
   10.1390   15.8130   21.9440 C   0  0  0  0  0  0  0  0  0  0  0  0
   11.1540   15.7270   20.8640 C   0  0  0  0  0  0  0  0  0  0  0  0
   10.7470   15.9490   19.6360 N   0  0  0  0  0  0  0  0  0  0  0  0
   11.8240   15.7550   18.8500 C   0  0  0  0  0  0  0  0  0  0  0  0
   11.7170   15.9260   17.3920 C   0  0  0  0  0  0  0  0  0  0  0  0
   12.9670   15.4030   19.4910 C   0  0  0  0  0  0  0  0  0  0  0  0
   12.7630   15.3260   21.1710 S   0  0  0  0  0  0  0  0  0  0  0  0
   10.4760   10.4910   23.5300 C   0  0  0  0  0  0  0  0  0  0  0  0
    9.5720    9.3140   23.7640 C   0  0  0  0  0  0  0  0  0  0  0  0
    8.3790    9.5350   24.4470 C   0  0  0  0  0  0  0  0  0  0  0  0
    8.0480   10.7970   24.8720 C   0  0  0  0  0  0  0  0  0  0  0  0
    6.8370   11.0130   25.5470 C   0  0  0  0  0  0  0  0  0  0  0  0
    4.6350   11.4850   26.8790 H   0  0  0  0  0  0  0  0  0  0  0  0
    5.2560   12.9680   27.6660 H   0  0  0  0  0  0  0  0  0  0  0  0
    4.4140   13.0580   26.1120 H   0  0  0  0  0  0  0  0  0  0  0  0
    7.0520   14.4390   26.1020 H   0  0  0  0  0  0  0  0  0  0  0  0
   10.8600   12.8860   21.5100 H   0  0  0  0  0  0  0  0  0  0  0  0
    9.0690   14.1230   21.3220 H   0  0  0  0  0  0  0  0  0  0  0  0
    9.1040   14.3270   23.0050 H   0  0  0  0  0  0  0  0  0  0  0  0
   10.4970   16.2660   22.8700 H   0  0  0  0  0  0  0  0  0  0  0  0
    9.3950   16.5020   21.5240 H   0  0  0  0  0  0  0  0  0  0  0  0
   12.6090   16.4110   17.0030 H   0  0  0  0  0  0  0  0  0  0  0  0
   11.5950   14.9450   16.9240 H   0  0  0  0  0  0  0  0  0  0  0  0
   10.8260   16.5060   17.1220 H   0  0  0  0  0  0  0  0  0  0  0  0
   13.8780   15.2130   18.9780 H   0  0  0  0  0  0  0  0  0  0  0  0
   11.3910   10.2540   22.9970 H   0  0  0  0  0  0  0  0  0  0  0  0
    9.8430    8.3200   23.4170 H   0  0  0  0  0  0  0  0  0  0  0  0
    7.7370    8.7170   24.6320 H   0  0  0  0  0  0  0  0  0  0  0  0
    6.1760   10.1640   25.7230 H   0  0  0  0  0  0  0  0  0  0  0  0
  1  2  1  0
  2  3  2  0
  3  4  1  0
  4  5  2  0
  5  6  1  0
  6  7  1  0
  7  8  2  0
  7  9  2  0
  7 10  1  0
 10 11  1  0
 11 12  1  0
 12 13  1  0
 13 14  2  0
 14 15  1  0
 15 16  1  0
 15 17  2  0
 17 18  1  0
  6 19  2  0
 19 20  1  0
 20 21  2  0
 21 22  1  0
 22 23  2  0
 23  2  1  0
 22  5  1  0
 18 13  1  0
  1 24  1  0
  1 25  1  0
  1 26  1  0
  3 27  1  0
 10 28  1  0
 11 29  1  0
 11 30  1  0
 12 31  1  0
 12 32  1  0
 16 33  1  0
 16 34  1  0
 16 35  1  0
 17 36  1  0
 19 37  1  0
 20 38  1  0
 21 39  1  0
 23 40  1  0
A    1
 C1 
A    2
 C2 
A    3
 C3 
A    4
 N1 
A    5
 C4 
A    6
 C5 
A    7
 S1 
A    8
 O1 
A    9
 O2 
A   10
 N2 
A   11
 C6 
A   12
 C7 
A   13
 C8 
A   14
 N3 
A   15
 C9 
A   16
 C10
A   17
 C11
A   18
 S2 
A   19
 C12
A   20
 C13
A   21
 C14
A   22
 C15
A   23
 C16
A   24
 H1 
A   25
 H2 
A   26
 H3 
A   27
 H4 
A   28
 H5 
A   29
 H6 
A   30
 H7 
A   31
 H8 
A   32
 H9 
A   33
 H10
A   34
 H11
A   35
 H12
A   36
 H13
A   37
 H14
A   38
 H15
A   39
 H16
A   40
 H17
M  END
>  <ref_pdb>  (83) 
x0451_0A

>  <ref_mols>  (83) 
x0451_0A,x0554_0A,x0556_0A,x0566_0A,x0310_0A,x0416_0A

>  <original SMILES>  (83) 
Cc1cnc2c(S(=O)(=O)NCCc3nc(C)cs3)cccc2c1

>  <rationale>  (83) 
info info set:ROCS-PPI;Warhead nanÅ to Cys110:SG; hydroph_interaction:Y90+D39; pistack:H21; 

>  <∆∆G>  (83) 
-8.564402

>  <comRMSD>  (83) 
0.808804

>  <ROCS_TanimotoCombo>  (83) 
0.529

>  <ROCS_ShapeTanimoto>  (83) 
0.365

>  <ROCS_ColorTanimoto>  (83) 
0.163

>  <distance>  (83) 
nan

$$$$
EN300_28295160
     RDKit          3D

 37 38  0  0  0  0  0  0  0  0999 V2000
    9.9040    8.5370   22.8470 C   0  0  0  0  0  0  0  0  0  0  0  0
    9.6900    9.5560   23.9340 C   0  0  1  0  0  0  0  0  0  0  0  0
   10.3460   10.9100   23.5180 C   0  0  0  0  0  0  0  0  0  0  0  0
    9.5190   12.1250   23.7820 N   0  0  0  0  0  0  0  0  0  0  0  0
   10.1610   13.4090   23.5050 C   0  0  0  0  0  0  0  0  0  0  0  0
   10.5050   14.2250   24.3480 O   0  0  0  0  0  0  0  0  0  0  0  0
   10.3470   13.6280   22.1630 O   0  0  0  0  0  0  0  0  0  0  0  0
   11.3280   14.5910   21.6860 C   0  0  0  0  0  0  0  0  0  0  0  0
   11.5430   14.5260   20.3030 C   0  0  0  0  0  0  0  0  0  0  0  0
   12.4250   14.3080   22.4860 C   0  0  0  0  0  0  0  0  0  0  0  0
   10.8820   15.9900   22.0690 C   0  0  0  0  0  0  0  0  0  0  0  0
    8.4820   11.9440   24.6690 C   0  0  0  0  0  0  0  0  0  0  0  0
    7.9070   13.1240   25.4530 C   0  0  0  0  0  0  0  0  0  0  0  0
    6.7450   13.1200   26.4930 C   0  0  0  0  0  0  0  0  0  0  0  0
    6.3100   11.7670   26.5770 C   0  0  0  0  0  0  0  0  0  0  0  0
    4.8900   11.3800   27.7560 Br  0  0  0  0  0  0  0  0  0  0  0  0
    6.8840   10.5700   25.7940 C   0  0  0  0  0  0  0  0  0  0  0  0
    7.9160   10.7140   24.8980 C   0  0  0  0  0  0  0  0  0  0  0  0
    8.3140    9.5780   24.2800 O   0  0  0  0  0  0  0  0  0  0  0  0
    9.0240    7.8970   22.7160 H   0  0  0  0  0  0  0  0  0  0  0  0
   10.7580    7.9020   23.0750 H   0  0  0  0  0  0  0  0  0  0  0  0
   10.0990    9.0370   21.8940 H   0  0  0  0  0  0  0  0  0  0  0  0
   10.2250    9.2070   24.8200 H   0  0  0  0  0  0  0  0  0  0  0  0
   11.3030   11.0000   24.0420 H   0  0  0  0  0  0  0  0  0  0  0  0
   10.5790   10.8600   22.4560 H   0  0  0  0  0  0  0  0  0  0  0  0
   10.6650   14.1150   19.8010 H   0  0  0  0  0  0  0  0  0  0  0  0
   11.7980   15.4380   19.7680 H   0  0  0  0  0  0  0  0  0  0  0  0
   12.3770   13.8420   20.1130 H   0  0  0  0  0  0  0  0  0  0  0  0
   12.1880   14.4340   23.5440 H   0  0  0  0  0  0  0  0  0  0  0  0
   12.7350   13.2640   22.3500 H   0  0  0  0  0  0  0  0  0  0  0  0
   13.2560   14.9660   22.2350 H   0  0  0  0  0  0  0  0  0  0  0  0
    9.8840   16.2120   21.6760 H   0  0  0  0  0  0  0  0  0  0  0  0
   11.5630   16.7480   21.6740 H   0  0  0  0  0  0  0  0  0  0  0  0
   10.8600   16.0940   23.1530 H   0  0  0  0  0  0  0  0  0  0  0  0
    8.3620   14.1060   25.2690 H   0  0  0  0  0  0  0  0  0  0  0  0
    6.3560   13.9790   27.0350 H   0  0  0  0  0  0  0  0  0  0  0  0
    6.4570    9.5880   25.9550 H   0  0  0  0  0  0  0  0  0  0  0  0
  1  2  1  0
  2  3  1  0
  3  4  1  0
  4  5  1  0
  5  6  2  0
  5  7  1  0
  7  8  1  0
  8  9  1  0
  8 10  1  0
  8 11  1  0
  4 12  1  0
 12 13  2  0
 13 14  1  0
 14 15  2  0
 15 16  1  0
 15 17  1  0
 17 18  2  0
 18 19  1  0
 19  2  1  0
 18 12  1  0
  1 20  1  0
  1 21  1  0
  1 22  1  0
  2 23  1  1
  3 24  1  0
  3 25  1  0
  9 26  1  0
  9 27  1  0
  9 28  1  0
 10 29  1  0
 10 30  1  0
 10 31  1  0
 11 32  1  0
 11 33  1  0
 11 34  1  0
 13 35  1  0
 14 36  1  0
 17 37  1  0
A    1
 C1 
A    2
 C2 
A    3
 C3 
A    4
 N1 
A    5
 C4 
A    6
 O1 
A    7
 O2 
A    8
 C5 
A    9
 C6 
A   10
 C7 
A   11
 C8 
A   12
 C9 
A   13
 C10
A   14
 C11
A   15
 C12
A   16
BR1 
A   17
 C13
A   18
 C14
A   19
 O3 
A   20
 H1 
A   21
 H2 
A   22
 H3 
A   23
 H4 
A   24
 H5 
A   25
 H6 
A   26
 H7 
A   27
 H8 
A   28
 H9 
A   29
 H10
A   30
 H11
A   31
 H12
A   32
 H13
A   33
 H14
A   34
 H15
A   35
 H16
A   36
 H17
A   37
 H18
M  END
>  <ref_pdb>  (84) 
x0451_0A

>  <ref_mols>  (84) 
x0451_0A,x0554_0A,x0556_0A,x0566_0A,x0310_0A,x0416_0A

>  <original SMILES>  (84) 
C[C@H]1CN(C(=O)OC(C)(C)C)c2ccc(Br)cc2O1

>  <rationale>  (84) 
info info set:ROCS-BB-0RB;Warhead nanÅ to Cys110:SG; hydroph_interaction:Y89+V124+D109; 

>  <∆∆G>  (84) 
-8.543512

>  <comRMSD>  (84) 
0.364367

>  <ROCS_TanimotoCombo>  (84) 
0.513

>  <ROCS_ShapeTanimoto>  (84) 
0.358

>  <ROCS_ColorTanimoto>  (84) 
0.154

>  <distance>  (84) 
nan

$$$$
EN300_697695
     RDKit          3D

 40 41  0  0  0  0  0  0  0  0999 V2000
    8.0850   14.3160   25.3780 C   0  0  0  0  0  0  0  0  0  0  0  0
    7.8360   12.8300   25.3820 C   0  0  0  0  0  0  0  0  0  0  0  0
    6.7800   12.3330   26.1800 C   0  0  0  0  0  0  0  0  0  0  0  0
    6.4760   10.9670   26.2520 C   0  0  0  0  0  0  0  0  0  0  0  0
    7.2250   10.0590   25.5270 C   0  0  0  0  0  0  0  0  0  0  0  0
    8.2590   10.5320   24.7400 C   0  0  0  0  0  0  0  0  0  0  0  0
    9.1350    9.8300   23.9440 C   0  0  0  0  0  0  0  0  0  0  0  0
    8.9960    8.3200   23.9110 C   0  0  0  0  0  0  0  0  0  0  0  0
    8.7410    7.4680   22.6860 C   0  0  0  0  0  0  0  0  0  0  0  0
    8.4100    6.0410   22.9680 C   0  0  0  0  0  0  0  0  0  0  0  0
    8.9240    5.0990   22.3810 O   0  0  0  0  0  0  0  0  0  0  0  0
   10.0460   10.6270   23.2940 C   0  0  0  0  0  0  0  0  0  0  0  0
    9.6920   11.9910   23.7540 N   0  0  0  0  0  0  0  0  0  0  0  0
   10.3520   13.2700   23.3900 C   0  0  0  0  0  0  0  0  0  0  0  0
   10.7740   14.0220   24.2730 O   0  0  0  0  0  0  0  0  0  0  0  0
   10.4060   13.4810   22.1810 O   0  0  0  0  0  0  0  0  0  0  0  0
   11.3250   14.5170   21.7830 C   0  0  0  0  0  0  0  0  0  0  0  0
   12.5120   14.3130   22.5540 C   0  0  0  0  0  0  0  0  0  0  0  0
   10.7550   15.9030   22.0310 C   0  0  0  0  0  0  0  0  0  0  0  0
   11.6410   14.3930   20.2810 C   0  0  0  0  0  0  0  0  0  0  0  0
    8.5850   11.8800   24.6440 C   0  0  0  0  0  0  0  0  0  0  0  0
    8.9730   14.5550   25.9680 H   0  0  0  0  0  0  0  0  0  0  0  0
    8.2000   14.6900   24.3580 H   0  0  0  0  0  0  0  0  0  0  0  0
    7.2380   14.8600   25.8110 H   0  0  0  0  0  0  0  0  0  0  0  0
    6.1740   13.0230   26.7630 H   0  0  0  0  0  0  0  0  0  0  0  0
    5.6580   10.6210   26.8760 H   0  0  0  0  0  0  0  0  0  0  0  0
    7.0070    9.0110   25.5780 H   0  0  0  0  0  0  0  0  0  0  0  0
    7.3540    5.9280   22.7770 H   0  0  0  0  0  0  0  0  0  0  0  0
    8.5500    5.7740   23.9970 H   0  0  0  0  0  0  0  0  0  0  0  0
    8.5840    4.3000   22.8160 H   0  0  0  0  0  0  0  0  0  0  0  0
   10.8590   10.4100   22.6070 H   0  0  0  0  0  0  0  0  0  0  0  0
   12.4610   14.4150   23.6320 H   0  0  0  0  0  0  0  0  0  0  0  0
   12.8590   13.2880   22.3870 H   0  0  0  0  0  0  0  0  0  0  0  0
   13.2860   15.0020   22.2060 H   0  0  0  0  0  0  0  0  0  0  0  0
   11.4670   16.6840   21.7400 H   0  0  0  0  0  0  0  0  0  0  0  0
   10.5420   16.0430   23.0960 H   0  0  0  0  0  0  0  0  0  0  0  0
    9.8310   16.0680   21.4620 H   0  0  0  0  0  0  0  0  0  0  0  0
   11.9680   15.3550   19.8700 H   0  0  0  0  0  0  0  0  0  0  0  0
   12.4240   13.6650   20.0800 H   0  0  0  0  0  0  0  0  0  0  0  0
   10.7580   14.1060   19.7210 H   0  0  0  0  0  0  0  0  0  0  0  0
  1  2  1  0
  2  3  2  0
  3  4  1  0
  4  5  2  0
  5  6  1  0
  6  7  1  0
  7  8  1  0
  8  9  3  0
  9 10  1  0
 10 11  1  0
  7 12  2  0
 12 13  1  0
 13 14  1  0
 14 15  2  0
 14 16  1  0
 16 17  1  0
 17 18  1  0
 17 19  1  0
 17 20  1  0
 13 21  1  0
 21  2  1  0
 21  6  2  0
  1 22  1  0
  1 23  1  0
  1 24  1  0
  3 25  1  0
  4 26  1  0
  5 27  1  0
 10 28  1  0
 10 29  1  0
 11 30  1  0
 12 31  1  0
 18 32  1  0
 18 33  1  0
 18 34  1  0
 19 35  1  0
 19 36  1  0
 19 37  1  0
 20 38  1  0
 20 39  1  0
 20 40  1  0
A    1
 C1 
A    2
 C2 
A    3
 C3 
A    4
 C4 
A    5
 C5 
A    6
 C6 
A    7
 C7 
A    8
 C8 
A    9
 C9 
A   10
 C10
A   11
 O1 
A   12
 C11
A   13
 N1 
A   14
 C12
A   15
 O2 
A   16
 O3 
A   17
 C13
A   18
 C14
A   19
 C15
A   20
 C16
A   21
 C17
A   22
 H1 
A   23
 H2 
A   24
 H3 
A   25
 H4 
A   26
 H5 
A   27
 H6 
A   28
 H7 
A   29
 H8 
A   30
 H9 
A   31
 H10
A   32
 H11
A   33
 H12
A   34
 H13
A   35
 H14
A   36
 H15
A   37
 H16
A   38
 H17
A   39
 H18
A   40
 H19
M  END
>  <ref_pdb>  (85) 
x0451_0A

>  <ref_mols>  (85) 
x0451_0A,x0554_0A,x0556_0A,x0566_0A,x0310_0A,x0416_0A

>  <original SMILES>  (85) 
Cc1cccc2c(C#CCO)cn(C(=O)OC(C)(C)C)c12

>  <rationale>  (85) 
info info set:ROCS-BB-0RB;Warhead nanÅ to Cys110:SG; hydroph_interaction:Y89+V124+D109; 

>  <∆∆G>  (85) 
-8.542261

>  <comRMSD>  (85) 
0.507768

>  <ROCS_TanimotoCombo>  (85) 
0.477

>  <ROCS_ShapeTanimoto>  (85) 
0.346

>  <ROCS_ColorTanimoto>  (85) 
0.131

>  <distance>  (85) 
nan

$$$$
EN300_28297627
     RDKit          3D

 39 40  0  0  0  0  0  0  0  0999 V2000
   12.0090   15.4010   22.1390 C   0  0  0  0  0  0  0  0  0  0  0  0
   10.9970   14.6890   21.3330 C   0  0  0  0  0  0  0  0  0  0  0  0
   11.3980   14.3940   20.0140 C   0  0  0  0  0  0  0  0  0  0  0  0
    9.7010   15.4980   21.2460 C   0  0  0  0  0  0  0  0  0  0  0  0
   10.7350   13.4460   21.9990 O   0  0  0  0  0  0  0  0  0  0  0  0
   10.4630   13.3880   23.3370 C   0  0  0  0  0  0  0  0  0  0  0  0
   10.7880   14.2120   24.1780 O   0  0  0  0  0  0  0  0  0  0  0  0
    9.7620   12.2610   23.5810 N   0  0  0  0  0  0  0  0  0  0  0  0
   10.3620   10.9610   23.2710 C   0  0  0  0  0  0  0  0  0  0  0  0
    9.5840    9.9570   23.7600 C   0  0  0  0  0  0  0  0  0  0  0  0
   10.3810    9.0770   24.5310 C   0  0  0  0  0  0  0  0  0  0  0  0
    9.1680    8.8200   22.8620 C   0  0  0  0  0  0  0  0  0  0  0  0
    8.5050   10.6760   24.6010 C   0  0  0  0  0  0  0  0  0  0  0  0
    7.4180   10.1290   25.4600 C   0  0  0  0  0  0  0  0  0  0  0  0
    6.5880   11.0620   26.1340 C   0  0  0  0  0  0  0  0  0  0  0  0
    5.1680   10.5260   27.2590 Br  0  0  0  0  0  0  0  0  0  0  0  0
    6.8810   12.5380   25.9240 C   0  0  0  0  0  0  0  0  0  0  0  0
    6.0740   13.3950   26.5950 F   0  0  0  0  0  0  0  0  0  0  0  0
    7.9100   12.9970   25.0970 C   0  0  0  0  0  0  0  0  0  0  0  0
    8.6880   12.0580   24.4580 C   0  0  0  0  0  0  0  0  0  0  0  0
   11.5280   16.1900   22.7230 H   0  0  0  0  0  0  0  0  0  0  0  0
   12.7810   15.8300   21.4920 H   0  0  0  0  0  0  0  0  0  0  0  0
   12.5020   14.7130   22.8340 H   0  0  0  0  0  0  0  0  0  0  0  0
   10.6860   13.8910   19.3710 H   0  0  0  0  0  0  0  0  0  0  0  0
   12.3110   13.8210   19.8750 H   0  0  0  0  0  0  0  0  0  0  0  0
   11.5910   15.3650   19.5440 H   0  0  0  0  0  0  0  0  0  0  0  0
    8.9890   15.1700   22.0060 H   0  0  0  0  0  0  0  0  0  0  0  0
    9.2440   15.4150   20.2560 H   0  0  0  0  0  0  0  0  0  0  0  0
    9.9020   16.5640   21.4010 H   0  0  0  0  0  0  0  0  0  0  0  0
   10.4580   10.8460   22.2190 H   0  0  0  0  0  0  0  0  0  0  0  0
   11.3760   10.9300   23.6770 H   0  0  0  0  0  0  0  0  0  0  0  0
    9.7130    8.2660   24.7680 H   0  0  0  0  0  0  0  0  0  0  0  0
   11.2220    8.6680   23.9850 H   0  0  0  0  0  0  0  0  0  0  0  0
   10.7560    9.5750   25.4180 H   0  0  0  0  0  0  0  0  0  0  0  0
    8.0920    8.7220   22.8180 H   0  0  0  0  0  0  0  0  0  0  0  0
    9.5390    7.8680   23.2500 H   0  0  0  0  0  0  0  0  0  0  0  0
    9.6140    8.9220   21.8730 H   0  0  0  0  0  0  0  0  0  0  0  0
    7.2710    9.0660   25.5710 H   0  0  0  0  0  0  0  0  0  0  0  0
    8.0650   14.0610   24.9810 H   0  0  0  0  0  0  0  0  0  0  0  0
  1  2  1  0
  2  3  1  0
  2  4  1  0
  2  5  1  0
  5  6  1  0
  6  7  2  0
  6  8  1  0
  8  9  1  0
  9 10  1  0
 10 11  1  0
 10 12  1  0
 10 13  1  0
 13 14  2  0
 14 15  1  0
 15 16  1  0
 15 17  2  0
 17 18  1  0
 17 19  1  0
 19 20  2  0
 20  8  1  0
 20 13  1  0
  1 21  1  0
  1 22  1  0
  1 23  1  0
  3 24  1  0
  3 25  1  0
  3 26  1  0
  4 27  1  0
  4 28  1  0
  4 29  1  0
  9 30  1  0
  9 31  1  0
 11 32  1  0
 11 33  1  0
 11 34  1  0
 12 35  1  0
 12 36  1  0
 12 37  1  0
 14 38  1  0
 19 39  1  0
A    1
 C1 
A    2
 C2 
A    3
 C3 
A    4
 C4 
A    5
 O1 
A    6
 C5 
A    7
 O2 
A    8
 N1 
A    9
 C6 
A   10
 C7 
A   11
 C8 
A   12
 C9 
A   13
 C10
A   14
 C11
A   15
 C12
A   16
BR1 
A   17
 C13
A   18
 F1 
A   19
 C14
A   20
 C15
A   21
 H1 
A   22
 H2 
A   23
 H3 
A   24
 H4 
A   25
 H5 
A   26
 H6 
A   27
 H7 
A   28
 H8 
A   29
 H9 
A   30
 H10
A   31
 H11
A   32
 H12
A   33
 H13
A   34
 H14
A   35
 H15
A   36
 H16
A   37
 H17
A   38
 H18
A   39
 H19
M  END
>  <ref_pdb>  (86) 
x0451_0A

>  <ref_mols>  (86) 
x0451_0A,x0554_0A,x0556_0A,x0566_0A,x0310_0A,x0416_0A

>  <original SMILES>  (86) 
CC(C)(C)OC(=O)N1CC(C)(C)c2cc(Br)c(F)cc21

>  <rationale>  (86) 
info info set:ROCS-BB-0RB;Warhead nanÅ to Cys110:SG; hydroph_interaction:Y89+V124+D109; 

>  <∆∆G>  (86) 
-8.525908

>  <comRMSD>  (86) 
0.594796

>  <ROCS_TanimotoCombo>  (86) 
0.488

>  <ROCS_ShapeTanimoto>  (86) 
0.358

>  <ROCS_ColorTanimoto>  (86) 
0.13

>  <distance>  (86) 
nan

$$$$
EN300_624588
     RDKit          3D

 35 36  0  0  0  0  0  0  0  0999 V2000
   10.7090   15.8510   22.0380 C   0  0  0  0  0  0  0  0  0  0  0  0
   11.3510   14.5470   21.7200 C   0  0  0  0  0  0  0  0  0  0  0  0
   11.7970   14.3890   20.3930 C   0  0  0  0  0  0  0  0  0  0  0  0
   12.5430   14.4410   22.6540 C   0  0  0  0  0  0  0  0  0  0  0  0
   10.5190   13.4520   22.1900 O   0  0  0  0  0  0  0  0  0  0  0  0
   10.3550   13.2890   23.5240 C   0  0  0  0  0  0  0  0  0  0  0  0
   10.7010   14.0740   24.3900 O   0  0  0  0  0  0  0  0  0  0  0  0
    9.7290   12.1110   23.8100 N   0  0  0  0  0  0  0  0  0  0  0  0
   10.0920   10.8100   23.3190 C   0  0  0  0  0  0  0  0  0  0  0  0
    9.1770    9.7640   23.8610 C   0  0  0  0  0  0  0  0  0  0  0  0
    9.4400    8.3110   23.4390 C   0  0  0  0  0  0  0  0  0  0  0  0
    8.3350    7.5160   22.7540 C   0  0  0  0  0  0  0  0  0  0  0  0
    8.4560    6.0880   22.9560 N   0  0  0  0  0  0  0  0  0  0  0  0
    8.2520   10.4770   24.6940 C   0  0  0  0  0  0  0  0  0  0  0  0
    7.0620   10.0530   25.5570 C   0  0  0  0  0  0  0  0  0  0  0  0
    6.3860   11.0400   26.2440 C   0  0  0  0  0  0  0  0  0  0  0  0
    6.7890   12.4830   26.1610 C   0  0  0  0  0  0  0  0  0  0  0  0
    7.8700   12.8660   25.3790 C   0  0  0  0  0  0  0  0  0  0  0  0
    8.6090   11.9020   24.6450 C   0  0  0  0  0  0  0  0  0  0  0  0
    9.7410   15.9580   21.5380 H   0  0  0  0  0  0  0  0  0  0  0  0
   10.5370   15.9330   23.1150 H   0  0  0  0  0  0  0  0  0  0  0  0
   11.3490   16.6720   21.7020 H   0  0  0  0  0  0  0  0  0  0  0  0
   12.4630   13.5780   20.1520 H   0  0  0  0  0  0  0  0  0  0  0  0
   12.3340   15.2940   20.0840 H   0  0  0  0  0  0  0  0  0  0  0  0
   10.9390   14.2750   19.7240 H   0  0  0  0  0  0  0  0  0  0  0  0
   12.9050   13.4090   22.7000 H   0  0  0  0  0  0  0  0  0  0  0  0
   13.3480   15.1050   22.3360 H   0  0  0  0  0  0  0  0  0  0  0  0
   12.2620   14.7060   23.6750 H   0  0  0  0  0  0  0  0  0  0  0  0
   10.9390   10.6510   22.6380 H   0  0  0  0  0  0  0  0  0  0  0  0
    9.3370    5.8150   23.3780 H   0  0  0  0  0  0  0  0  0  0  0  0
    8.3370    5.5300   22.1150 H   0  0  0  0  0  0  0  0  0  0  0  0
    6.6800    9.0520   25.6980 H   0  0  0  0  0  0  0  0  0  0  0  0
    5.5320   10.7310   26.8610 H   0  0  0  0  0  0  0  0  0  0  0  0
    6.1730   13.1710   26.7510 H   0  0  0  0  0  0  0  0  0  0  0  0
    8.1450   13.9180   25.3330 H   0  0  0  0  0  0  0  0  0  0  0  0
  1  2  1  0
  2  3  1  0
  2  4  1  0
  2  5  1  0
  5  6  1  0
  6  7  2  0
  6  8  1  0
  8  9  1  0
  9 10  2  0
 10 11  1  0
 11 12  3  0
 12 13  1  0
 10 14  1  0
 14 15  2  0
 15 16  1  0
 16 17  2  0
 17 18  1  0
 18 19  2  0
 19  8  1  0
 19 14  1  0
  1 20  1  0
  1 21  1  0
  1 22  1  0
  3 23  1  0
  3 24  1  0
  3 25  1  0
  4 26  1  0
  4 27  1  0
  4 28  1  0
  9 29  1  0
 13 30  1  0
 13 31  1  0
 15 32  1  0
 16 33  1  0
 17 34  1  0
 18 35  1  0
A    1
 C1 
A    2
 C2 
A    3
 C3 
A    4
 C4 
A    5
 O1 
A    6
 C5 
A    7
 O2 
A    8
 N1 
A    9
 C6 
A   10
 C7 
A   11
 C8 
A   12
 C9 
A   13
 N2 
A   14
 C10
A   15
 C11
A   16
 C12
A   17
 C13
A   18
 C14
A   19
 C15
A   20
 H1 
A   21
 H2 
A   22
 H3 
A   23
 H4 
A   24
 H5 
A   25
 H6 
A   26
 H7 
A   27
 H8 
A   28
 H9 
A   29
 H10
A   30
 H11
A   31
 H12
A   32
 H13
A   33
 H14
A   34
 H15
A   35
 H16
M  END
>  <ref_pdb>  (87) 
x0451_0A

>  <ref_mols>  (87) 
x0451_0A,x0554_0A,x0556_0A,x0566_0A,x0310_0A,x0416_0A

>  <original SMILES>  (87) 
CC(C)(C)OC(=O)n1cc(C#CN)c2ccccc21

>  <rationale>  (87) 
info info set:ROCS-BB-0RB;Warhead nanÅ to Cys110:SG; hbond:D109; hydroph_interaction:Y89+V124+D109; 

>  <∆∆G>  (87) 
-8.521903

>  <comRMSD>  (87) 
0.441688

>  <ROCS_TanimotoCombo>  (87) 
0.476

>  <ROCS_ShapeTanimoto>  (87) 
0.342

>  <ROCS_ColorTanimoto>  (87) 
0.133

>  <distance>  (87) 
nan

$$$$
EN300_7426760
     RDKit          3D

 41 42  0  0  0  0  0  0  0  0999 V2000
    8.6710    8.1480   23.7440 C   0  0  0  0  0  0  0  0  0  0  0  0
    8.9860    9.5420   23.9140 N   0  0  0  0  0  0  0  0  0  0  0  0
   10.4000    9.8080   23.9360 C   0  0  0  0  0  0  0  0  0  0  0  0
   10.6730   11.0320   23.3260 C   0  0  0  0  0  0  0  0  0  0  0  0
    9.7860   12.1640   23.6910 N   0  0  0  0  0  0  0  0  0  0  0  0
   10.2660   13.3970   23.4950 C   0  0  0  0  0  0  0  0  0  0  0  0
   10.5470   14.1980   24.3740 O   0  0  0  0  0  0  0  0  0  0  0  0
   10.4200   13.7090   22.1720 O   0  0  0  0  0  0  0  0  0  0  0  0
   11.3670   14.7360   21.8000 C   0  0  0  0  0  0  0  0  0  0  0  0
   10.8800   15.9940   22.0840 C   0  0  0  0  0  0  0  0  0  0  0  0
   12.5280   14.4770   22.7440 C   0  0  0  0  0  0  0  0  0  0  0  0
   11.8620   14.6610   20.3490 C   0  0  0  0  0  0  0  0  0  0  0  0
    8.7140   11.9190   24.4710 C   0  0  0  0  0  0  0  0  0  0  0  0
    7.9870   13.0010   25.1830 C   0  0  0  0  0  0  0  0  0  0  0  0
    6.7890   12.6700   26.0520 C   0  0  0  0  0  0  0  0  0  0  0  0
    6.1290   13.8690   26.7290 C   0  0  0  0  0  0  0  0  0  0  0  0
    4.9610   14.2320   26.5940 O   0  0  0  0  0  0  0  0  0  0  0  0
    6.9710   14.5460   27.5290 O   0  0  0  0  0  0  0  0  0  0  0  0
    6.3580   11.3560   26.1950 C   0  0  0  0  0  0  0  0  0  0  0  0
    7.1360   10.2570   25.4400 C   0  0  0  0  0  0  0  0  0  0  0  0
    8.2570   10.5750   24.6230 C   0  0  0  0  0  0  0  0  0  0  0  0
    9.5460    7.6070   23.3880 H   0  0  0  0  0  0  0  0  0  0  0  0
    7.8580    7.9850   23.0410 H   0  0  0  0  0  0  0  0  0  0  0  0
    8.3910    7.7390   24.7140 H   0  0  0  0  0  0  0  0  0  0  0  0
   10.7650    9.8490   24.9710 H   0  0  0  0  0  0  0  0  0  0  0  0
   10.9160    9.0070   23.3940 H   0  0  0  0  0  0  0  0  0  0  0  0
   11.6960   11.3760   23.5140 H   0  0  0  0  0  0  0  0  0  0  0  0
   10.6010   10.8400   22.2740 H   0  0  0  0  0  0  0  0  0  0  0  0
   10.9810   16.1480   23.1620 H   0  0  0  0  0  0  0  0  0  0  0  0
   11.3570   16.8420   21.6080 H   0  0  0  0  0  0  0  0  0  0  0  0
    9.8150   16.0590   21.8350 H   0  0  0  0  0  0  0  0  0  0  0  0
   12.2700   14.6820   23.7720 H   0  0  0  0  0  0  0  0  0  0  0  0
   13.3720   15.0970   22.4700 H   0  0  0  0  0  0  0  0  0  0  0  0
   12.8480   13.4310   22.6790 H   0  0  0  0  0  0  0  0  0  0  0  0
   12.3330   13.7080   20.1210 H   0  0  0  0  0  0  0  0  0  0  0  0
   11.0390   14.7900   19.6390 H   0  0  0  0  0  0  0  0  0  0  0  0
   12.6150   15.4310   20.1570 H   0  0  0  0  0  0  0  0  0  0  0  0
    8.2850   14.0500   25.1080 H   0  0  0  0  0  0  0  0  0  0  0  0
    6.6290   15.4640   27.5190 H   0  0  0  0  0  0  0  0  0  0  0  0
    5.4970   11.0990   26.8210 H   0  0  0  0  0  0  0  0  0  0  0  0
    6.7400    9.2530   25.6020 H   0  0  0  0  0  0  0  0  0  0  0  0
  1  2  1  0
  2  3  1  0
  3  4  1  0
  4  5  1  0
  5  6  1  0
  6  7  2  0
  6  8  1  0
  8  9  1  0
  9 10  1  0
  9 11  1  0
  9 12  1  0
  5 13  1  0
 13 14  2  0
 14 15  1  0
 15 16  1  0
 16 17  2  0
 16 18  1  0
 15 19  2  0
 19 20  1  0
 20 21  2  0
 21  2  1  0
 21 13  1  0
  1 22  1  0
  1 23  1  0
  1 24  1  0
  3 25  1  0
  3 26  1  0
  4 27  1  0
  4 28  1  0
 10 29  1  0
 10 30  1  0
 10 31  1  0
 11 32  1  0
 11 33  1  0
 11 34  1  0
 12 35  1  0
 12 36  1  0
 12 37  1  0
 14 38  1  0
 18 39  1  0
 19 40  1  0
 20 41  1  0
A    1
 C1 
A    2
 N1 
A    3
 C2 
A    4
 C3 
A    5
 N2 
A    6
 C4 
A    7
 O1 
A    8
 O2 
A    9
 C5 
A   10
 C6 
A   11
 C7 
A   12
 C8 
A   13
 C9 
A   14
 C10
A   15
 C11
A   16
 C12
A   17
 O3 
A   18
 O4 
A   19
 C13
A   20
 C14
A   21
 C15
A   22
 H1 
A   23
 H2 
A   24
 H3 
A   25
 H4 
A   26
 H5 
A   27
 H6 
A   28
 H7 
A   29
 H8 
A   30
 H9 
A   31
 H10
A   32
 H11
A   33
 H12
A   34
 H13
A   35
 H14
A   36
 H15
A   37
 H16
A   38
 H17
A   39
 H18
A   40
 H19
A   41
 H20
M  END
>  <ref_pdb>  (88) 
x0451_0A

>  <ref_mols>  (88) 
x0451_0A,x0554_0A,x0556_0A,x0566_0A,x0310_0A,x0416_0A

>  <original SMILES>  (88) 
CN1CCN(C(=O)OC(C)(C)C)c2cc(C(=O)O)ccc21

>  <rationale>  (88) 
info info set:ROCS-BB-1RB;Warhead nanÅ to Cys110:SG; hydroph_interaction:Y89; 

>  <∆∆G>  (88) 
-8.506789

>  <comRMSD>  (88) 
0.447433

>  <ROCS_TanimotoCombo>  (88) 
0.515

>  <ROCS_ShapeTanimoto>  (88) 
0.365

>  <ROCS_ColorTanimoto>  (88) 
0.15

>  <distance>  (88) 
nan

$$$$
EN300_697688
     RDKit          3D

 40 41  0  0  0  0  0  0  0  0999 V2000
   10.8620   10.1580   22.8510 C   0  0  0  0  0  0  0  0  0  0  0  0
    9.7880   10.6510   23.6690 C   0  0  0  0  0  0  0  0  0  0  0  0
    8.8650    9.8460   24.3070 C   0  0  0  0  0  0  0  0  0  0  0  0
    8.7920    8.3900   24.3090 C   0  0  0  0  0  0  0  0  0  0  0  0
    9.0430    7.8970   22.9340 C   0  0  0  0  0  0  0  0  0  0  0  0
    8.2910    6.7980   22.3640 C   0  0  0  0  0  0  0  0  0  0  0  0
    8.7650    5.6930   22.6290 O   0  0  0  0  0  0  0  0  0  0  0  0
    7.9940   10.6590   24.9940 C   0  0  0  0  0  0  0  0  0  0  0  0
    6.7900   10.2960   25.8570 C   0  0  0  0  0  0  0  0  0  0  0  0
    6.0460   11.4490   26.4960 C   0  0  0  0  0  0  0  0  0  0  0  0
    6.5980   12.8290   26.1890 C   0  0  0  0  0  0  0  0  0  0  0  0
    7.7100   13.0190   25.3770 C   0  0  0  0  0  0  0  0  0  0  0  0
    8.4070   11.9810   24.7820 C   0  0  0  0  0  0  0  0  0  0  0  0
    9.5390   11.9390   23.9440 N   0  0  0  0  0  0  0  0  0  0  0  0
   10.2010   13.2110   23.5680 C   0  0  0  0  0  0  0  0  0  0  0  0
   10.5320   13.9950   24.4470 O   0  0  0  0  0  0  0  0  0  0  0  0
   10.3950   13.4170   22.2420 O   0  0  0  0  0  0  0  0  0  0  0  0
   11.3550   14.4080   21.8550 C   0  0  0  0  0  0  0  0  0  0  0  0
   11.7210   14.3710   20.5580 C   0  0  0  0  0  0  0  0  0  0  0  0
   10.6760   15.7540   22.0830 C   0  0  0  0  0  0  0  0  0  0  0  0
   12.5350   14.3470   22.8020 C   0  0  0  0  0  0  0  0  0  0  0  0
   11.5090   10.9860   22.5690 H   0  0  0  0  0  0  0  0  0  0  0  0
   10.4840    9.6660   21.9530 H   0  0  0  0  0  0  0  0  0  0  0  0
   11.4450    9.4330   23.4200 H   0  0  0  0  0  0  0  0  0  0  0  0
    7.2620    6.7990   22.6370 H   0  0  0  0  0  0  0  0  0  0  0  0
    8.2990    6.9660   21.3180 H   0  0  0  0  0  0  0  0  0  0  0  0
    9.2690    5.7950   23.4510 H   0  0  0  0  0  0  0  0  0  0  0  0
    6.4810    9.2690   26.0110 H   0  0  0  0  0  0  0  0  0  0  0  0
    5.1860   11.1920   27.1150 H   0  0  0  0  0  0  0  0  0  0  0  0
    6.1090   13.6980   26.6180 H   0  0  0  0  0  0  0  0  0  0  0  0
    7.9600   14.0800   25.2720 H   0  0  0  0  0  0  0  0  0  0  0  0
   10.8610   14.1770   19.9070 H   0  0  0  0  0  0  0  0  0  0  0  0
   12.1830   15.3160   20.2570 H   0  0  0  0  0  0  0  0  0  0  0  0
   12.4430   13.6070   20.3640 H   0  0  0  0  0  0  0  0  0  0  0  0
    9.7500   15.8300   21.5040 H   0  0  0  0  0  0  0  0  0  0  0  0
   10.4350   15.9140   23.1420 H   0  0  0  0  0  0  0  0  0  0  0  0
   11.3240   16.5700   21.7470 H   0  0  0  0  0  0  0  0  0  0  0  0
   13.3070   15.0330   22.4780 H   0  0  0  0  0  0  0  0  0  0  0  0
   12.9380   13.3330   22.8590 H   0  0  0  0  0  0  0  0  0  0  0  0
   12.2580   14.6380   23.8170 H   0  0  0  0  0  0  0  0  0  0  0  0
  1  2  1  0
  2  3  2  0
  3  4  1  0
  4  5  3  0
  5  6  1  0
  6  7  1  0
  3  8  1  0
  8  9  2  0
  9 10  1  0
 10 11  2  0
 11 12  1  0
 12 13  2  0
 13 14  1  0
 14 15  1  0
 15 16  2  0
 15 17  1  0
 17 18  1  0
 18 19  1  0
 18 20  1  0
 18 21  1  0
 14  2  1  0
 13  8  1  0
  1 22  1  0
  1 23  1  0
  1 24  1  0
  6 25  1  0
  6 26  1  0
  7 27  1  0
  9 28  1  0
 10 29  1  0
 11 30  1  0
 12 31  1  0
 19 32  1  0
 19 33  1  0
 19 34  1  0
 20 35  1  0
 20 36  1  0
 20 37  1  0
 21 38  1  0
 21 39  1  0
 21 40  1  0
A    1
 C1 
A    2
 C2 
A    3
 C3 
A    4
 C4 
A    5
 C5 
A    6
 C6 
A    7
 O1 
A    8
 C7 
A    9
 C8 
A   10
 C9 
A   11
 C10
A   12
 C11
A   13
 C12
A   14
 N1 
A   15
 C13
A   16
 O2 
A   17
 O3 
A   18
 C14
A   19
 C15
A   20
 C16
A   21
 C17
A   22
 H1 
A   23
 H2 
A   24
 H3 
A   25
 H4 
A   26
 H5 
A   27
 H6 
A   28
 H7 
A   29
 H8 
A   30
 H9 
A   31
 H10
A   32
 H11
A   33
 H12
A   34
 H13
A   35
 H14
A   36
 H15
A   37
 H16
A   38
 H17
A   39
 H18
A   40
 H19
M  END
>  <ref_pdb>  (89) 
x0451_0A

>  <ref_mols>  (89) 
x0451_0A,x0554_0A,x0556_0A,x0566_0A,x0310_0A,x0416_0A

>  <original SMILES>  (89) 
Cc1c(C#CCO)c2ccccc2n1C(=O)OC(C)(C)C

>  <rationale>  (89) 
info info set:ROCS-BB-0RB;Warhead nanÅ to Cys110:SG; hbond:H104; hydroph_interaction:Y89+A110+V124+D109; 

>  <∆∆G>  (89) 
-8.498729

>  <comRMSD>  (89) 
0.678007

>  <ROCS_TanimotoCombo>  (89) 
0.482

>  <ROCS_ShapeTanimoto>  (89) 
0.351

>  <ROCS_ColorTanimoto>  (89) 
0.131

>  <distance>  (89) 
nan

$$$$
Z425750180
     RDKit          3D

 30 30  0  0  0  0  0  0  0  0999 V2000
    6.3820    9.9450   25.6650 C   0  0  0  0  0  0  0  0  0  0  0  0
    7.6190   10.5460   25.0680 C   0  0  0  0  0  0  0  0  0  0  0  0
    7.8270   11.8550   25.3990 C   0  0  0  0  0  0  0  0  0  0  0  0
    8.9310   12.4940   24.9300 C   0  0  0  0  0  0  0  0  0  0  0  0
    9.8700   11.8760   24.1210 C   0  0  0  0  0  0  0  0  0  0  0  0
   11.2090   12.9750   23.7080 S   0  0  0  0  0  6  0  0  0  0  0  0
   11.0800   14.1890   24.4830 O   0  0  0  0  0  0  0  0  0  0  0  0
   12.4250   12.1940   23.7660 O   0  0  0  0  0  0  0  0  0  0  0  0
   10.9540   13.3850   22.1170 N   0  0  0  0  0  0  0  0  0  0  0  0
   10.2560   14.5920   21.6640 C   0  0  0  0  0  0  0  0  0  0  0  0
   11.1500   15.6280   21.4290 C   0  0  0  0  0  0  0  0  0  0  0  0
   11.5150   16.2160   22.6540 O   0  0  0  0  0  0  0  0  0  0  0  0
    9.6850   10.5190   23.7410 C   0  0  0  0  0  0  0  0  0  0  0  0
   10.5440    9.7880   22.9360 C   0  0  0  0  0  0  0  0  0  0  0  0
    8.5330    9.8640   24.2340 C   0  0  0  0  0  0  0  0  0  0  0  0
    6.6320    9.2570   26.4610 H   0  0  0  0  0  0  0  0  0  0  0  0
    5.7600   10.7250   26.1120 H   0  0  0  0  0  0  0  0  0  0  0  0
    5.8080    9.4510   24.9290 H   0  0  0  0  0  0  0  0  0  0  0  0
    7.1180   12.3900   26.0400 H   0  0  0  0  0  0  0  0  0  0  0  0
    9.1620   13.5320   25.1600 H   0  0  0  0  0  0  0  0  0  0  0  0
   11.1180   12.6310   21.4550 H   0  0  0  0  0  0  0  0  0  0  0  0
    9.6630   14.3770   20.7730 H   0  0  0  0  0  0  0  0  0  0  0  0
    9.5660   14.8790   22.4640 H   0  0  0  0  0  0  0  0  0  0  0  0
   10.6660   16.4060   20.8290 H   0  0  0  0  0  0  0  0  0  0  0  0
   12.0540   15.2930   20.9050 H   0  0  0  0  0  0  0  0  0  0  0  0
   11.6160   15.4790   23.3030 H   0  0  0  0  0  0  0  0  0  0  0  0
   11.1390    9.0770   23.5190 H   0  0  0  0  0  0  0  0  0  0  0  0
    9.9980    9.2010   22.1950 H   0  0  0  0  0  0  0  0  0  0  0  0
   11.2370   10.4660   22.4540 H   0  0  0  0  0  0  0  0  0  0  0  0
    8.3470    8.8210   23.9760 H   0  0  0  0  0  0  0  0  0  0  0  0
  1  2  1  0
  2  3  2  0
  3  4  1  0
  4  5  2  0
  5  6  1  0
  6  7  2  0
  6  8  2  0
  6  9  1  0
  9 10  1  0
 10 11  1  0
 11 12  1  0
  5 13  1  0
 13 14  1  0
 13 15  2  0
 15  2  1  0
  1 16  1  0
  1 17  1  0
  1 18  1  0
  3 19  1  0
  4 20  1  0
  9 21  1  0
 10 22  1  0
 10 23  1  0
 11 24  1  0
 11 25  1  0
 12 26  1  0
 14 27  1  0
 14 28  1  0
 14 29  1  0
 15 30  1  0
A    1
 C1 
A    2
 C2 
A    3
 C3 
A    4
 C4 
A    5
 C5 
A    6
 S1 
A    7
 O1 
A    8
 O2 
A    9
 N1 
A   10
 C6 
A   11
 C7 
A   12
 O3 
A   13
 C8 
A   14
 C9 
A   15
 C10
A   16
 H1 
A   17
 H2 
A   18
 H3 
A   19
 H4 
A   20
 H5 
A   21
 H6 
A   22
 H7 
A   23
 H8 
A   24
 H9 
A   25
 H10
A   26
 H11
A   27
 H12
A   28
 H13
A   29
 H14
A   30
 H15
M  END
>  <ref_pdb>  (90) 
x0451_0A

>  <ref_mols>  (90) 
x0451_0A,x0554_0A,x0556_0A,x0566_0A,x0310_0A,x0416_0A

>  <original SMILES>  (90) 
Cc1ccc(S(=O)(=O)NCCO)c(C)c1

>  <rationale>  (90) 
info info set:ROCS-shape_Q1;Warhead nanÅ to Cys110:SG; hbond:S87; hydroph_interaction:A110; 

>  <∆∆G>  (90) 
-8.48002

>  <comRMSD>  (90) 
0.719645

>  <ROCS_TanimotoCombo>  (90) 
0.427

>  <ROCS_ShapeTanimoto>  (90) 
0.269

>  <ROCS_ColorTanimoto>  (90) 
0.158

>  <distance>  (90) 
nan

$$$$
EN300_28297173
     RDKit          3D

 37 38  0  0  0  0  0  0  0  0999 V2000
    8.6590    8.1420   23.8260 C   0  0  0  0  0  0  0  0  0  0  0  0
    8.9070    9.5400   23.9380 N   0  0  0  0  0  0  0  0  0  0  0  0
    9.9590   10.0040   23.2090 C   0  0  0  0  0  0  0  0  0  0  0  0
   10.3710    9.2730   22.3120 O   0  0  0  0  0  0  0  0  0  0  0  0
   10.5950   11.2870   23.4830 C   0  0  0  0  0  0  0  0  0  0  0  0
    9.5570   12.2320   23.6320 N   0  0  0  0  0  0  0  0  0  0  0  0
    9.8930   13.5500   23.4650 C   0  0  0  0  0  0  0  0  0  0  0  0
   10.0130   14.3210   24.4110 O   0  0  0  0  0  0  0  0  0  0  0  0
   10.1200   13.9320   22.1820 O   0  0  0  0  0  0  0  0  0  0  0  0
   11.4670   14.3460   21.9090 C   0  0  0  0  0  0  0  0  0  0  0  0
   11.6610   15.8660   21.9860 C   0  0  0  0  0  0  0  0  0  0  0  0
   12.4530   13.5220   22.7270 C   0  0  0  0  0  0  0  0  0  0  0  0
   11.7530   14.4490   20.3760 C   0  0  0  0  0  0  0  0  0  0  0  0
    8.5850   11.8170   24.4750 C   0  0  0  0  0  0  0  0  0  0  0  0
    7.9350   12.8480   25.1750 C   0  0  0  0  0  0  0  0  0  0  0  0
    6.9170   12.5770   26.0820 C   0  0  0  0  0  0  0  0  0  0  0  0
    6.5260   11.2720   26.3090 C   0  0  0  0  0  0  0  0  0  0  0  0
    5.1380   10.9400   27.5480 Br  0  0  0  0  0  0  0  0  0  0  0  0
    7.1380   10.2090   25.6400 C   0  0  0  0  0  0  0  0  0  0  0  0
    8.1730   10.4720   24.7140 C   0  0  0  0  0  0  0  0  0  0  0  0
    7.8680    7.9460   23.1080 H   0  0  0  0  0  0  0  0  0  0  0  0
    9.5760    7.6850   23.4500 H   0  0  0  0  0  0  0  0  0  0  0  0
    8.4060    7.7450   24.8050 H   0  0  0  0  0  0  0  0  0  0  0  0
   11.2450   11.5970   22.6640 H   0  0  0  0  0  0  0  0  0  0  0  0
   11.1770   11.2530   24.4090 H   0  0  0  0  0  0  0  0  0  0  0  0
   12.7010   16.0860   21.7370 H   0  0  0  0  0  0  0  0  0  0  0  0
   11.4380   16.4350   22.8710 H   0  0  0  0  0  0  0  0  0  0  0  0
   11.1170   16.3820   21.1910 H   0  0  0  0  0  0  0  0  0  0  0  0
   11.9670   13.0910   23.5950 H   0  0  0  0  0  0  0  0  0  0  0  0
   12.8480   12.6990   22.1300 H   0  0  0  0  0  0  0  0  0  0  0  0
   13.2640   14.1380   23.1130 H   0  0  0  0  0  0  0  0  0  0  0  0
   10.8510   14.4500   19.7560 H   0  0  0  0  0  0  0  0  0  0  0  0
   12.3970   13.6560   19.9970 H   0  0  0  0  0  0  0  0  0  0  0  0
   12.2910   15.3810   20.1600 H   0  0  0  0  0  0  0  0  0  0  0  0
    8.2010   13.8920   25.0380 H   0  0  0  0  0  0  0  0  0  0  0  0
    6.4330   13.4050   26.6100 H   0  0  0  0  0  0  0  0  0  0  0  0
    6.8080    9.2040   25.8420 H   0  0  0  0  0  0  0  0  0  0  0  0
  1  2  1  0
  2  3  1  0
  3  4  2  0
  3  5  1  0
  5  6  1  0
  6  7  1  0
  7  8  2  0
  7  9  1  0
  9 10  1  0
 10 11  1  0
 10 12  1  0
 10 13  1  0
  6 14  1  0
 14 15  2  0
 15 16  1  0
 16 17  2  0
 17 18  1  0
 17 19  1  0
 19 20  2  0
 20  2  1  0
 20 14  1  0
  1 21  1  0
  1 22  1  0
  1 23  1  0
  5 24  1  0
  5 25  1  0
 11 26  1  0
 11 27  1  0
 11 28  1  0
 12 29  1  0
 12 30  1  0
 12 31  1  0
 13 32  1  0
 13 33  1  0
 13 34  1  0
 15 35  1  0
 16 36  1  0
 19 37  1  0
A    1
 C1 
A    2
 N1 
A    3
 C2 
A    4
 O1 
A    5
 C3 
A    6
 N2 
A    7
 C4 
A    8
 O2 
A    9
 O3 
A   10
 C5 
A   11
 C6 
A   12
 C7 
A   13
 C8 
A   14
 C9 
A   15
 C10
A   16
 C11
A   17
 C12
A   18
BR1 
A   19
 C13
A   20
 C14
A   21
 H1 
A   22
 H2 
A   23
 H3 
A   24
 H4 
A   25
 H5 
A   26
 H6 
A   27
 H7 
A   28
 H8 
A   29
 H9 
A   30
 H10
A   31
 H11
A   32
 H12
A   33
 H13
A   34
 H14
A   35
 H15
A   36
 H16
A   37
 H17
M  END
>  <ref_pdb>  (91) 
x0451_0A

>  <ref_mols>  (91) 
x0451_0A,x0554_0A,x0556_0A,x0566_0A,x0310_0A,x0416_0A

>  <original SMILES>  (91) 
CN1C(=O)CN(C(=O)OC(C)(C)C)c2ccc(Br)cc21

>  <rationale>  (91) 
info info set:ROCS-BB-0RB;Warhead nanÅ to Cys110:SG; 

>  <∆∆G>  (91) 
-8.475598

>  <comRMSD>  (91) 
0.527332

>  <ROCS_TanimotoCombo>  (91) 
0.488

>  <ROCS_ShapeTanimoto>  (91) 
0.367

>  <ROCS_ColorTanimoto>  (91) 
0.121

>  <distance>  (91) 
nan

$$$$
EN300_1129061
     RDKit          3D

 61 63  0  0  0  0  0  0  0  0999 V2000
    6.3570   14.4010   30.4320 C   0  0  0  0  0  0  0  0  0  0  0  0
    5.2570   13.8610   29.5170 C   0  0  0  0  0  0  0  0  0  0  0  0
    4.5000   12.7560   30.2370 C   0  0  0  0  0  0  0  0  0  0  0  0
    4.3410   15.0090   29.0750 C   0  0  0  0  0  0  0  0  0  0  0  0
    5.9650   13.3390   28.3850 O   0  0  0  0  0  0  0  0  0  0  0  0
    5.2670   12.7480   27.4080 C   0  0  0  0  0  0  0  0  0  0  0  0
    4.0590   12.7860   27.2390 O   0  0  0  0  0  0  0  0  0  0  0  0
    6.2220   11.9620   26.4980 C   0  0  0  0  0  0  0  0  0  0  0  0
    7.0750   12.8080   25.5450 C   0  0  0  0  0  0  0  0  0  0  0  0
    8.0290   12.0740   24.6110 C   0  0  0  0  0  0  0  0  0  0  0  0
    7.9780   10.5900   24.7830 C   0  0  0  0  0  0  0  0  0  0  0  0
    7.1640    9.9600   25.7170 C   0  0  0  0  0  0  0  0  0  0  0  0
    6.2990   10.6120   26.5460 C   0  0  0  0  0  0  0  0  0  0  0  0
    5.5460    9.9020   27.3880 F   0  0  0  0  0  0  0  0  0  0  0  0
    8.8560    9.7760   23.8630 C   0  0  2  0  0  0  0  0  0  0  0  0
    9.2590    8.4640   24.4520 N   0  0  0  0  0  0  0  0  0  0  0  0
   10.1050   10.5520   23.4040 C   0  0  0  0  0  0  0  0  0  0  0  0
   10.1310   12.0480   23.7340 C   0  0  1  0  0  0  0  0  0  0  0  0
   10.8890   12.4010   25.0210 C   0  0  0  0  0  0  0  0  0  0  0  0
   11.4940   13.7730   24.7570 C   0  0  0  0  0  0  0  0  0  0  0  0
   11.4720   13.9010   23.3250 N   0  0  0  0  0  0  0  0  0  0  0  0
   11.2130   15.0230   22.6590 C   0  0  0  0  0  0  0  0  0  0  0  0
   11.2220   16.1230   23.1750 O   0  0  0  0  0  0  0  0  0  0  0  0
   10.9570   14.7250   21.3590 O   0  0  0  0  0  0  0  0  0  0  0  0
   11.7710   15.3550   20.3860 C   0  0  0  0  0  0  0  0  0  0  0  0
   12.3390   14.5040   19.2630 C   0  0  0  0  0  0  0  0  0  0  0  0
   12.8730   15.7210   21.3410 C   0  0  0  0  0  0  0  0  0  0  0  0
   10.9680   16.5300   19.8610 C   0  0  0  0  0  0  0  0  0  0  0  0
   11.0830   12.6930   22.7400 C   0  0  0  0  0  0  0  0  0  0  0  0
    8.8390   12.6900   23.7220 O   0  0  0  0  0  0  0  0  0  0  0  0
    7.1190   13.6430   30.6310 H   0  0  0  0  0  0  0  0  0  0  0  0
    6.8820   15.2520   29.9850 H   0  0  0  0  0  0  0  0  0  0  0  0
    5.9470   14.7250   31.3960 H   0  0  0  0  0  0  0  0  0  0  0  0
    4.8810   11.7440   30.2760 H   0  0  0  0  0  0  0  0  0  0  0  0
    3.5010   12.6670   29.7930 H   0  0  0  0  0  0  0  0  0  0  0  0
    4.3330   13.0490   31.2790 H   0  0  0  0  0  0  0  0  0  0  0  0
    4.8510   15.9780   29.1100 H   0  0  0  0  0  0  0  0  0  0  0  0
    3.4550   15.0810   29.7140 H   0  0  0  0  0  0  0  0  0  0  0  0
    4.0040   14.8640   28.0420 H   0  0  0  0  0  0  0  0  0  0  0  0
    6.9790   13.9010   25.5520 H   0  0  0  0  0  0  0  0  0  0  0  0
    7.1880    8.9090   25.8150 H   0  0  0  0  0  0  0  0  0  0  0  0
    8.4000    9.4740   22.9410 H   0  0  0  0  0  0  0  0  0  0  0  0
    9.7320    8.6100   25.3460 H   0  0  0  0  0  0  0  0  0  0  0  0
    9.9460    8.0140   23.8470 H   0  0  0  0  0  0  0  0  0  0  0  0
   10.3120   10.3550   22.3470 H   0  0  0  0  0  0  0  0  0  0  0  0
   10.9470   10.0960   23.9390 H   0  0  0  0  0  0  0  0  0  0  0  0
   10.2840   12.3790   25.9300 H   0  0  0  0  0  0  0  0  0  0  0  0
   11.6940   11.6670   25.1760 H   0  0  0  0  0  0  0  0  0  0  0  0
   10.8860   14.5810   25.1820 H   0  0  0  0  0  0  0  0  0  0  0  0
   12.5150   13.8660   25.1360 H   0  0  0  0  0  0  0  0  0  0  0  0
   11.6700   14.4760   18.3990 H   0  0  0  0  0  0  0  0  0  0  0  0
   13.2900   14.9250   18.9490 H   0  0  0  0  0  0  0  0  0  0  0  0
   12.5290   13.4800   19.5670 H   0  0  0  0  0  0  0  0  0  0  0  0
   13.7080   16.2200   20.8600 H   0  0  0  0  0  0  0  0  0  0  0  0
   12.4480   16.3990   22.0610 H   0  0  0  0  0  0  0  0  0  0  0  0
   13.2280   14.8580   21.8920 H   0  0  0  0  0  0  0  0  0  0  0  0
   11.3270   16.8710   18.8880 H   0  0  0  0  0  0  0  0  0  0  0  0
   10.9370   17.3730   20.5560 H   0  0  0  0  0  0  0  0  0  0  0  0
    9.9220   16.2280   19.7310 H   0  0  0  0  0  0  0  0  0  0  0  0
   11.9630   12.0860   22.5100 H   0  0  0  0  0  0  0  0  0  0  0  0
   10.5970   12.9820   21.8170 H   0  0  0  0  0  0  0  0  0  0  0  0
  1  2  1  0
  2  3  1  0
  2  4  1  0
  2  5  1  0
  5  6  1  0
  6  7  2  0
  6  8  1  0
  8  9  2  0
  9 10  1  0
 10 11  2  0
 11 12  1  0
 12 13  2  0
 13 14  1  0
 11 15  1  0
 15 16  1  0
 15 17  1  0
 17 18  1  0
 18 19  1  0
 19 20  1  0
 20 21  1  0
 21 22  1  0
 22 23  2  0
 22 24  1  0
 24 25  1  0
 25 26  1  0
 25 27  1  0
 25 28  1  0
 21 29  1  0
 18 30  1  1
 13  8  1  0
 29 18  1  0
 30 10  1  0
  1 31  1  0
  1 32  1  0
  1 33  1  0
  3 34  1  0
  3 35  1  0
  3 36  1  0
  4 37  1  0
  4 38  1  0
  4 39  1  0
  9 40  1  0
 12 41  1  0
 15 42  1  6
 16 43  1  0
 16 44  1  0
 17 45  1  0
 17 46  1  0
 19 47  1  0
 19 48  1  0
 20 49  1  0
 20 50  1  0
 26 51  1  0
 26 52  1  0
 26 53  1  0
 27 54  1  0
 27 55  1  0
 27 56  1  0
 28 57  1  0
 28 58  1  0
 28 59  1  0
 29 60  1  0
 29 61  1  0
A    1
 C1 
A    2
 C2 
A    3
 C3 
A    4
 C4 
A    5
 O1 
A    6
 C5 
A    7
 O2 
A    8
 C6 
A    9
 C7 
A   10
 C8 
A   11
 C9 
A   12
 C10
A   13
 C11
A   14
 F1 
A   15
 C12
A   16
 N1 
A   17
 C13
A   18
 C14
A   19
 C15
A   20
 C16
A   21
 N2 
A   22
 C17
A   23
 O3 
A   24
 O4 
A   25
 C18
A   26
 C19
A   27
 C20
A   28
 C21
A   29
 C22
A   30
 O5 
A   31
 H1 
A   32
 H2 
A   33
 H3 
A   34
 H4 
A   35
 H5 
A   36
 H6 
A   37
 H7 
A   38
 H8 
A   39
 H9 
A   40
 H10
A   41
 H11
A   42
 H12
A   43
 H13
A   44
 H14
A   45
 H15
A   46
 H16
A   47
 H17
A   48
 H18
A   49
 H19
A   50
 H20
A   51
 H21
A   52
 H22
A   53
 H23
A   54
 H24
A   55
 H25
A   56
 H26
A   57
 H27
A   58
 H28
A   59
 H29
A   60
 H30
A   61
 H31
M  END
>  <ref_pdb>  (92) 
x0451_0A

>  <ref_mols>  (92) 
x0451_0A,x0554_0A,x0556_0A,x0566_0A,x0310_0A,x0416_0A

>  <original SMILES>  (92) 
CC(C)(C)OC(=O)c1cc2c(cc1F)[C@H](N)C[C@]1(CCN(C(=O)OC(C)(C)C)C1)O2

>  <rationale>  (92) 
info info set:ROCS-BB-1RB;Warhead nanÅ to Cys110:SG; hbond:S105+S87+G127; hydroph_interaction:Y89; 

>  <∆∆G>  (92) 
-8.468508

>  <comRMSD>  (92) 
0.793552

>  <ROCS_TanimotoCombo>  (92) 
0.521

>  <ROCS_ShapeTanimoto>  (92) 
0.391

>  <ROCS_ColorTanimoto>  (92) 
0.13

>  <distance>  (92) 
nan

$$$$
Z425750170
     RDKit          3D

 30 30  0  0  0  0  0  0  0  0999 V2000
    6.6800    9.8380   25.3770 C   0  0  0  0  0  0  0  0  0  0  0  0
    7.8410   10.4960   24.8570 C   0  0  0  0  0  0  0  0  0  0  0  0
    7.8660   11.8450   25.1390 C   0  0  0  0  0  0  0  0  0  0  0  0
    9.0000   12.6560   24.7120 C   0  0  0  0  0  0  0  0  0  0  0  0
   10.0580   12.1000   24.0270 C   0  0  0  0  0  0  0  0  0  0  0  0
   11.3750   13.1830   23.6190 S   0  0  0  0  0  6  0  0  0  0  0  0
   11.1240   14.4020   24.3550 O   0  0  0  0  0  0  0  0  0  0  0  0
   12.5950   12.4330   23.7770 O   0  0  0  0  0  0  0  0  0  0  0  0
   11.1400   13.5260   22.0030 N   0  0  0  0  0  0  0  0  0  0  0  0
   10.2220   14.5750   21.5560 C   0  0  0  0  0  0  0  0  0  0  0  0
   11.0680   15.8260   21.3270 C   0  0  0  0  0  0  0  0  0  0  0  0
   11.4950   16.2820   22.5870 O   0  0  0  0  0  0  0  0  0  0  0  0
   10.0700   10.7430   23.6960 C   0  0  0  0  0  0  0  0  0  0  0  0
    8.8890    9.8680   24.1290 C   0  0  0  0  0  0  0  0  0  0  0  0
    8.9140    8.4080   23.7720 C   0  0  0  0  0  0  0  0  0  0  0  0
    6.1260    9.4010   24.6030 H   0  0  0  0  0  0  0  0  0  0  0  0
    6.0340   10.5550   25.8890 H   0  0  0  0  0  0  0  0  0  0  0  0
    6.9730    9.0790   26.0830 H   0  0  0  0  0  0  0  0  0  0  0  0
    7.0500   12.3070   25.6860 H   0  0  0  0  0  0  0  0  0  0  0  0
    8.9170   13.7100   24.9950 H   0  0  0  0  0  0  0  0  0  0  0  0
   11.2620   12.7150   21.3950 H   0  0  0  0  0  0  0  0  0  0  0  0
    9.4650   14.7790   22.3180 H   0  0  0  0  0  0  0  0  0  0  0  0
    9.7430   14.2750   20.6200 H   0  0  0  0  0  0  0  0  0  0  0  0
   10.4860   16.6230   20.8410 H   0  0  0  0  0  0  0  0  0  0  0  0
   11.9470   15.6000   20.7100 H   0  0  0  0  0  0  0  0  0  0  0  0
   11.5930   15.4810   23.1370 H   0  0  0  0  0  0  0  0  0  0  0  0
   10.9080   10.3180   23.1470 H   0  0  0  0  0  0  0  0  0  0  0  0
    8.2060    8.1960   22.9660 H   0  0  0  0  0  0  0  0  0  0  0  0
    9.9230    8.1210   23.4480 H   0  0  0  0  0  0  0  0  0  0  0  0
    8.6460    7.7760   24.6260 H   0  0  0  0  0  0  0  0  0  0  0  0
  1  2  1  0
  2  3  2  0
  3  4  1  0
  4  5  2  0
  5  6  1  0
  6  7  2  0
  6  8  2  0
  6  9  1  0
  9 10  1  0
 10 11  1  0
 11 12  1  0
  5 13  1  0
 13 14  2  0
 14 15  1  0
 14  2  1  0
  1 16  1  0
  1 17  1  0
  1 18  1  0
  3 19  1  0
  4 20  1  0
  9 21  1  0
 10 22  1  0
 10 23  1  0
 11 24  1  0
 11 25  1  0
 12 26  1  0
 13 27  1  0
 15 28  1  0
 15 29  1  0
 15 30  1  0
A    1
 C1 
A    2
 C2 
A    3
 C3 
A    4
 C4 
A    5
 C5 
A    6
 S1 
A    7
 O1 
A    8
 O2 
A    9
 N1 
A   10
 C6 
A   11
 C7 
A   12
 O3 
A   13
 C8 
A   14
 C9 
A   15
 C10
A   16
 H1 
A   17
 H2 
A   18
 H3 
A   19
 H4 
A   20
 H5 
A   21
 H6 
A   22
 H7 
A   23
 H8 
A   24
 H9 
A   25
 H10
A   26
 H11
A   27
 H12
A   28
 H13
A   29
 H14
A   30
 H15
M  END
>  <ref_pdb>  (93) 
x0451_0A

>  <ref_mols>  (93) 
x0451_0A,x0554_0A,x0556_0A,x0566_0A,x0310_0A,x0416_0A

>  <original SMILES>  (93) 
Cc1ccc(S(=O)(=O)NCCO)cc1C

>  <rationale>  (93) 
info info set:ROCS-shape_Q1;Warhead nanÅ to Cys110:SG; hbond:S87; hydroph_interaction:D109; 

>  <∆∆G>  (93) 
-8.437452

>  <comRMSD>  (93) 
0.684962

>  <ROCS_TanimotoCombo>  (93) 
0.43

>  <ROCS_ShapeTanimoto>  (93) 
0.272

>  <ROCS_ColorTanimoto>  (93) 
0.158

>  <distance>  (93) 
nan

$$$$
Z85931652
     RDKit          3D

 52 55  0  0  0  0  0  0  0  0999 V2000
   12.1780   14.1960   21.4560 C   0  0  0  0  0  0  0  0  0  0  0  0
   12.2830   14.0060   22.9620 C   0  0  2  0  0  0  0  0  0  0  0  0
   13.3050   13.0630   23.4390 N   0  0  0  0  0  0  0  0  0  0  0  0
   13.6560   13.0560   24.8140 C   0  0  0  0  0  0  0  0  0  0  0  0
   12.9310   13.6760   25.5740 O   0  0  0  0  0  0  0  0  0  0  0  0
   14.8210   12.3690   25.3400 C   0  0  0  0  0  0  0  0  0  0  0  0
   15.1040   11.0260   25.2640 C   0  0  0  0  0  0  0  0  0  0  0  0
   16.3930   10.7410   25.9180 C   0  0  0  0  0  0  0  0  0  0  0  0
   16.8760   12.0630   26.4350 C   0  0  0  0  0  0  0  0  0  0  0  0
   15.8720   13.0380   26.0520 O   0  0  0  0  0  0  0  0  0  0  0  0
   10.9200   13.6060   23.4960 C   0  0  0  0  0  0  0  0  0  0  0  0
   10.1200   14.5670   24.2410 O   0  0  0  0  0  0  0  0  0  0  0  0
   10.5970   12.3280   23.1790 N   0  0  0  0  0  0  0  0  0  0  0  0
    9.5450   11.5690   23.7950 C   0  0  0  0  0  0  0  0  0  0  0  0
    9.5300   10.0450   23.7620 C   0  0  0  0  0  0  0  0  0  0  0  0
    8.3160    9.5280   24.4870 C   0  0  0  0  0  0  0  0  0  0  0  0
    7.3080   10.4240   25.1240 C   0  0  0  0  0  0  0  0  0  0  0  0
    7.4410   11.8080   25.0790 C   0  0  0  0  0  0  0  0  0  0  0  0
    6.4310   12.7420   25.7180 C   0  0  0  0  0  0  0  0  0  0  0  0
    5.9350   13.8740   25.2370 N   0  0  0  0  0  0  0  0  0  0  0  0
    5.0730   14.3830   26.1220 N   0  0  0  0  0  0  0  0  0  0  0  0
    5.0210   13.5610   27.1890 C   0  0  0  0  0  0  0  0  0  0  0  0
    5.8680   12.5360   26.9360 N   0  0  0  0  0  0  0  0  0  0  0  0
    6.1270   11.4430   27.7850 C   0  0  0  0  0  0  0  0  0  0  0  0
    4.9030   10.7390   28.3150 C   0  0  0  0  0  0  0  0  0  0  0  0
    4.0430   11.5510   29.2370 C   0  0  0  0  0  0  0  0  0  0  0  0
    3.3900   12.6030   28.6990 C   0  0  0  0  0  0  0  0  0  0  0  0
    4.2400   13.7390   28.3440 C   0  0  0  0  0  0  0  0  0  0  0  0
    8.5470   12.3530   24.4210 C   0  0  0  0  0  0  0  0  0  0  0  0
   12.7210   15.0880   21.1210 H   0  0  0  0  0  0  0  0  0  0  0  0
   11.1320   14.3050   21.1510 H   0  0  0  0  0  0  0  0  0  0  0  0
   12.5830   13.3460   20.9300 H   0  0  0  0  0  0  0  0  0  0  0  0
   12.5410   14.9700   23.3880 H   0  0  0  0  0  0  0  0  0  0  0  0
   14.0790   12.9310   22.7980 H   0  0  0  0  0  0  0  0  0  0  0  0
   14.4560   10.2980   24.7900 H   0  0  0  0  0  0  0  0  0  0  0  0
   16.9140    9.7840   26.0300 H   0  0  0  0  0  0  0  0  0  0  0  0
   17.8130   12.1970   26.9830 H   0  0  0  0  0  0  0  0  0  0  0  0
   10.8560   12.0320   22.2320 H   0  0  0  0  0  0  0  0  0  0  0  0
   10.2760    9.4140   23.2910 H   0  0  0  0  0  0  0  0  0  0  0  0
    8.2630    8.4380   24.4930 H   0  0  0  0  0  0  0  0  0  0  0  0
    6.4760    9.9050   25.6170 H   0  0  0  0  0  0  0  0  0  0  0  0
    6.7220   11.8540   28.6010 H   0  0  0  0  0  0  0  0  0  0  0  0
    6.7560   10.7270   27.2500 H   0  0  0  0  0  0  0  0  0  0  0  0
    5.1990    9.8160   28.8330 H   0  0  0  0  0  0  0  0  0  0  0  0
    4.3010   10.4200   27.4550 H   0  0  0  0  0  0  0  0  0  0  0  0
    3.2920   10.9090   29.7090 H   0  0  0  0  0  0  0  0  0  0  0  0
    4.6710   11.9250   30.0520 H   0  0  0  0  0  0  0  0  0  0  0  0
    2.7480   12.9720   29.5010 H   0  0  0  0  0  0  0  0  0  0  0  0
    2.7030   12.3190   27.8950 H   0  0  0  0  0  0  0  0  0  0  0  0
    4.7770   14.1640   29.1890 H   0  0  0  0  0  0  0  0  0  0  0  0
    3.5600   14.5550   28.0820 H   0  0  0  0  0  0  0  0  0  0  0  0
    8.6300   13.4330   24.3990 H   0  0  0  0  0  0  0  0  0  0  0  0
  1  2  1  0
  2  3  1  0
  3  4  1  0
  4  5  2  0
  4  6  1  0
  6  7  2  0
  7  8  1  0
  8  9  2  0
  9 10  1  0
  2 11  1  0
 11 12  2  0
 11 13  1  0
 13 14  1  0
 14 15  2  0
 15 16  1  0
 16 17  2  0
 17 18  1  0
 18 19  1  0
 19 20  2  0
 20 21  1  0
 21 22  2  0
 22 23  1  0
 23 24  1  0
 24 25  1  0
 25 26  1  0
 26 27  1  0
 27 28  1  0
 18 29  2  0
 10  6  1  0
 29 14  1  0
 23 19  1  0
 28 22  1  0
  1 30  1  0
  1 31  1  0
  1 32  1  0
  2 33  1  1
  3 34  1  0
  7 35  1  0
  8 36  1  0
  9 37  1  0
 13 38  1  0
 15 39  1  0
 16 40  1  0
 17 41  1  0
 24 42  1  0
 24 43  1  0
 25 44  1  0
 25 45  1  0
 26 46  1  0
 26 47  1  0
 27 48  1  0
 27 49  1  0
 28 50  1  0
 28 51  1  0
 29 52  1  0
A    1
 C1 
A    2
 C2 
A    3
 N1 
A    4
 C3 
A    5
 O1 
A    6
 C4 
A    7
 C5 
A    8
 C6 
A    9
 C7 
A   10
 O2 
A   11
 C8 
A   12
 O3 
A   13
 N2 
A   14
 C9 
A   15
 C10
A   16
 C11
A   17
 C12
A   18
 C13
A   19
 C14
A   20
 N3 
A   21
 N4 
A   22
 C15
A   23
 N5 
A   24
 C16
A   25
 C17
A   26
 C18
A   27
 C19
A   28
 C20
A   29
 C21
A   30
 H1 
A   31
 H2 
A   32
 H3 
A   33
 H4 
A   34
 H5 
A   35
 H6 
A   36
 H7 
A   37
 H8 
A   38
 H9 
A   39
 H10
A   40
 H11
A   41
 H12
A   42
 H13
A   43
 H14
A   44
 H15
A   45
 H16
A   46
 H17
A   47
 H18
A   48
 H19
A   49
 H20
A   50
 H21
A   51
 H22
A   52
 H23
M  END
>  <ref_pdb>  (94) 
x0451_0A

>  <ref_mols>  (94) 
x0451_0A,x0554_0A,x0556_0A,x0566_0A,x0310_0A,x0416_0A

>  <original SMILES>  (94) 
C[C@H](NC(=O)c1ccco1)C(=O)Nc1cccc(-c2nnc3n2CCCCC3)c1

>  <rationale>  (94) 
info info set:ROCS-PPI;Warhead nanÅ to Cys110:SG; hbond:S125; hydroph_interaction:A110+L22; 

>  <∆∆G>  (94) 
-8.423372

>  <comRMSD>  (94) 
0.470972

>  <ROCS_TanimotoCombo>  (94) 
0.526

>  <ROCS_ShapeTanimoto>  (94) 
0.337

>  <ROCS_ColorTanimoto>  (94) 
0.188

>  <distance>  (94) 
nan

$$$$
Z1893068050
     RDKit          3D

 51 54  0  0  0  0  0  0  0  0999 V2000
   10.1640    9.4320   22.8920 C   0  0  0  0  0  0  0  0  0  0  0  0
    9.3820   10.3810   23.7170 N   0  0  0  0  0  0  0  0  0  0  0  0
    8.3710    9.7920   24.4340 N   0  0  0  0  0  0  0  0  0  0  0  0
    7.8380   10.7950   25.0780 C   0  0  0  0  0  0  0  0  0  0  0  0
    6.7880   10.6910   25.9350 C   0  0  0  0  0  0  0  0  0  0  0  0
    6.5150   11.8840   26.8090 C   0  0  0  0  0  0  0  0  0  0  0  0
    5.4610   11.6010   27.5800 C   0  0  0  0  0  0  0  0  0  0  0  0
    5.0820   10.2040   27.1660 C   0  0  0  0  0  0  0  0  0  0  0  0
    5.9590    9.7590   26.1600 O   0  0  0  0  0  0  0  0  0  0  0  0
    8.4920   11.9480   24.7620 C   0  0  0  0  0  0  0  0  0  0  0  0
    9.5380   11.7810   23.8630 C   0  0  0  0  0  0  0  0  0  0  0  0
   10.3970   12.1950   23.2360 N   0  0  0  0  0  0  0  0  0  0  0  0
   10.7550   13.4330   23.4140 C   0  0  0  0  0  0  0  0  0  0  0  0
    9.9980   14.3850   23.6030 O   0  0  0  0  0  0  0  0  0  0  0  0
   12.1130   13.5810   23.3760 N   0  0  0  0  0  0  0  0  0  0  0  0
   12.9410   12.4620   23.5640 C   0  0  0  0  0  0  0  0  0  0  0  0
   13.7880   12.4590   24.8290 C   0  0  0  0  0  0  0  0  0  0  0  0
   12.9940   12.1970   26.0950 C   0  0  0  0  0  0  0  0  0  0  0  0
   13.7940   12.1740   27.3580 C   0  0  0  0  0  0  0  0  0  0  0  0
   15.2750   12.4070   27.2640 C   0  0  0  0  0  0  0  0  0  0  0  0
   15.8860   12.6340   26.1090 N   0  0  0  0  0  0  0  0  0  0  0  0
   15.1420   12.6510   24.9690 C   0  0  0  0  0  0  0  0  0  0  0  0
   12.4750   14.7300   22.5400 C   0  0  0  0  0  0  0  0  0  0  0  0
   12.2110   14.5560   21.2330 C   0  0  2  0  0  0  0  0  0  0  0  0
   12.6080   15.7000   20.5630 C   0  0  0  0  0  0  0  0  0  0  0  0
   11.9790   15.7350   19.2520 C   0  0  0  0  0  0  0  0  0  0  0  0
   10.8400   14.8090   19.4220 C   0  0  0  0  0  0  0  0  0  0  0  0
   10.9050   14.5060   20.8530 O   0  0  0  0  0  0  0  0  0  0  0  0
    9.4860    8.7520   22.3730 H   0  0  0  0  0  0  0  0  0  0  0  0
   10.7850    9.9520   22.1680 H   0  0  0  0  0  0  0  0  0  0  0  0
   10.7820    8.8600   23.5890 H   0  0  0  0  0  0  0  0  0  0  0  0
    7.0880   12.8200   26.8100 H   0  0  0  0  0  0  0  0  0  0  0  0
    4.9870   12.2370   28.3350 H   0  0  0  0  0  0  0  0  0  0  0  0
    4.2640    9.6110   27.5690 H   0  0  0  0  0  0  0  0  0  0  0  0
    8.3510   12.9820   25.0830 H   0  0  0  0  0  0  0  0  0  0  0  0
   10.5580   11.8240   22.2960 H   0  0  0  0  0  0  0  0  0  0  0  0
   13.4970   12.2560   22.6680 H   0  0  0  0  0  0  0  0  0  0  0  0
   12.2750   11.5990   23.6520 H   0  0  0  0  0  0  0  0  0  0  0  0
   11.9260   12.0410   26.0790 H   0  0  0  0  0  0  0  0  0  0  0  0
   13.3540   11.9950   28.3160 H   0  0  0  0  0  0  0  0  0  0  0  0
   15.9000   12.3970   28.1500 H   0  0  0  0  0  0  0  0  0  0  0  0
   15.7350   12.8380   24.1150 H   0  0  0  0  0  0  0  0  0  0  0  0
   11.9060   15.6010   22.8780 H   0  0  0  0  0  0  0  0  0  0  0  0
   13.5100   14.9750   22.6960 H   0  0  0  0  0  0  0  0  0  0  0  0
   12.6580   13.6540   20.8320 H   0  0  0  0  0  0  0  0  0  0  0  0
   12.3170   16.5510   21.1700 H   0  0  0  0  0  0  0  0  0  0  0  0
   13.6760   15.7530   20.4590 H   0  0  0  0  0  0  0  0  0  0  0  0
   12.6710   15.3490   18.4960 H   0  0  0  0  0  0  0  0  0  0  0  0
   11.6140   16.7010   18.9290 H   0  0  0  0  0  0  0  0  0  0  0  0
    9.8740   15.2480   19.1590 H   0  0  0  0  0  0  0  0  0  0  0  0
   10.9850   13.8780   18.8660 H   0  0  0  0  0  0  0  0  0  0  0  0
  1  2  1  0
  2  3  1  0
  3  4  2  0
  4  5  1  0
  5  6  2  0
  6  7  1  0
  7  8  2  0
  8  9  1  0
  4 10  1  0
 10 11  2  0
 11 12  1  0
 12 13  1  0
 13 14  2  0
 13 15  1  0
 15 16  1  0
 16 17  1  0
 17 18  2  0
 18 19  1  0
 19 20  2  0
 20 21  1  0
 21 22  2  0
 15 23  1  0
 23 24  1  0
 24 25  1  0
 25 26  1  0
 26 27  1  0
 27 28  1  0
 11  2  1  0
 22 17  1  0
 28 24  1  0
  9  5  1  0
  1 29  1  0
  1 30  1  0
  1 31  1  0
  6 32  1  0
  7 33  1  0
  8 34  1  0
 10 35  1  0
 12 36  1  0
 16 37  1  0
 16 38  1  0
 18 39  1  0
 19 40  1  0
 20 41  1  0
 22 42  1  0
 23 43  1  0
 23 44  1  0
 24 45  1  6
 25 46  1  0
 25 47  1  0
 26 48  1  0
 26 49  1  0
 27 50  1  0
 27 51  1  0
A    1
 C1 
A    2
 N1 
A    3
 N2 
A    4
 C2 
A    5
 C3 
A    6
 C4 
A    7
 C5 
A    8
 C6 
A    9
 O1 
A   10
 C7 
A   11
 C8 
A   12
 N3 
A   13
 C9 
A   14
 O2 
A   15
 N4 
A   16
 C10
A   17
 C11
A   18
 C12
A   19
 C13
A   20
 C14
A   21
 N5 
A   22
 C15
A   23
 C16
A   24
 C17
A   25
 C18
A   26
 C19
A   27
 C20
A   28
 O3 
A   29
 H1 
A   30
 H2 
A   31
 H3 
A   32
 H4 
A   33
 H5 
A   34
 H6 
A   35
 H7 
A   36
 H8 
A   37
 H9 
A   38
 H10
A   39
 H11
A   40
 H12
A   41
 H13
A   42
 H14
A   43
 H15
A   44
 H16
A   45
 H17
A   46
 H18
A   47
 H19
A   48
 H20
A   49
 H21
A   50
 H22
A   51
 H23
M  END
>  <ref_pdb>  (95) 
x0451_0A

>  <ref_mols>  (95) 
x0451_0A,x0554_0A,x0556_0A,x0566_0A,x0310_0A,x0416_0A

>  <original SMILES>  (95) 
Cn1nc(-c2ccco2)cc1NC(=O)N(Cc1cccnc1)C[C@@H]1CCCO1

>  <rationale>  (95) 
info info set:ROCS-PPI;Warhead nanÅ to Cys110:SG; hbond:S125; hydroph_interaction:Y89+Y90+P107; 

>  <∆∆G>  (95) 
-8.397493

>  <comRMSD>  (95) 
0.77411

>  <ROCS_TanimotoCombo>  (95) 
0.542

>  <ROCS_ShapeTanimoto>  (95) 
0.369

>  <ROCS_ColorTanimoto>  (95) 
0.172

>  <distance>  (95) 
nan

$$$$
EN300_180995
     RDKit          3D

 38 39  0  0  0  0  0  0  0  0999 V2000
   12.1770   15.4510   22.2670 C   0  0  0  0  0  0  0  0  0  0  0  0
   11.1150   14.7920   21.3990 C   0  0  0  0  0  0  0  0  0  0  0  0
    9.8730   15.6720   21.2210 C   0  0  0  0  0  0  0  0  0  0  0  0
   11.7190   14.4530   20.0210 C   0  0  0  0  0  0  0  0  0  0  0  0
   10.7710   13.5560   22.0610 O   0  0  0  0  0  0  0  0  0  0  0  0
   10.4020   13.5280   23.3810 C   0  0  0  0  0  0  0  0  0  0  0  0
   10.4560   14.4790   24.1420 O   0  0  0  0  0  0  0  0  0  0  0  0
    9.9890   12.2590   23.6450 N   0  0  0  0  0  0  0  0  0  0  0  0
   10.9390   11.1490   23.4640 C   0  0  0  0  0  0  0  0  0  0  0  0
   10.2390    9.8590   23.1560 C   0  0  0  0  0  0  0  0  0  0  0  0
    9.2290    9.4950   24.2340 C   0  0  2  0  0  0  0  0  0  0  0  0
    8.4090    8.4450   23.8100 N   0  0  0  0  0  0  0  0  0  0  0  0
    8.5170   10.6170   24.7420 C   0  0  0  0  0  0  0  0  0  0  0  0
    7.4340   10.3020   25.5540 C   0  0  0  0  0  0  0  0  0  0  0  0
    6.6550   11.3080   26.1300 C   0  0  0  0  0  0  0  0  0  0  0  0
    5.3140   10.9490   27.1490 Cl  0  0  0  0  0  0  0  0  0  0  0  0
    7.0010   12.6340   25.8530 C   0  0  0  0  0  0  0  0  0  0  0  0
    8.0880   12.9690   25.0360 C   0  0  0  0  0  0  0  0  0  0  0  0
    8.8550   11.9520   24.4780 C   0  0  0  0  0  0  0  0  0  0  0  0
   12.5190   14.7850   23.0650 H   0  0  0  0  0  0  0  0  0  0  0  0
   11.7730   16.3600   22.7150 H   0  0  0  0  0  0  0  0  0  0  0  0
   13.0500   15.7210   21.6600 H   0  0  0  0  0  0  0  0  0  0  0  0
    9.1030   15.7780   21.9720 H   0  0  0  0  0  0  0  0  0  0  0  0
    9.3530   15.3150   20.3260 H   0  0  0  0  0  0  0  0  0  0  0  0
   10.1590   16.7030   20.9950 H   0  0  0  0  0  0  0  0  0  0  0  0
   12.1670   15.3230   19.5360 H   0  0  0  0  0  0  0  0  0  0  0  0
   10.9280   14.0930   19.3570 H   0  0  0  0  0  0  0  0  0  0  0  0
   12.4770   13.6750   20.1000 H   0  0  0  0  0  0  0  0  0  0  0  0
   11.6330   11.4400   22.6740 H   0  0  0  0  0  0  0  0  0  0  0  0
   11.5180   10.9710   24.3780 H   0  0  0  0  0  0  0  0  0  0  0  0
    9.7520    9.8660   22.1960 H   0  0  0  0  0  0  0  0  0  0  0  0
   10.9640    9.0370   23.1130 H   0  0  0  0  0  0  0  0  0  0  0  0
    9.8220    9.0730   25.0200 H   0  0  0  0  0  0  0  0  0  0  0  0
    7.4680    8.8010   23.6460 H   0  0  0  0  0  0  0  0  0  0  0  0
    8.3430    7.7440   24.5480 H   0  0  0  0  0  0  0  0  0  0  0  0
    7.2220    9.2490   25.7260 H   0  0  0  0  0  0  0  0  0  0  0  0
    6.3520   13.3770   26.3290 H   0  0  0  0  0  0  0  0  0  0  0  0
    8.3610   13.9980   24.8190 H   0  0  0  0  0  0  0  0  0  0  0  0
  1  2  1  0
  2  3  1  0
  2  4  1  0
  2  5  1  0
  5  6  1  0
  6  7  2  0
  6  8  1  0
  8  9  1  0
  9 10  1  0
 10 11  1  0
 11 12  1  0
 11 13  1  0
 13 14  2  0
 14 15  1  0
 15 16  1  0
 15 17  2  0
 17 18  1  0
 18 19  2  0
 19  8  1  0
 19 13  1  0
  1 20  1  0
  1 21  1  0
  1 22  1  0
  3 23  1  0
  3 24  1  0
  3 25  1  0
  4 26  1  0
  4 27  1  0
  4 28  1  0
  9 29  1  0
  9 30  1  0
 10 31  1  0
 10 32  1  0
 11 33  1  1
 12 34  1  0
 12 35  1  0
 14 36  1  0
 17 37  1  0
 18 38  1  0
A    1
 C1 
A    2
 C2 
A    3
 C3 
A    4
 C4 
A    5
 O1 
A    6
 C5 
A    7
 O2 
A    8
 N1 
A    9
 C6 
A   10
 C7 
A   11
 C8 
A   12
 N2 
A   13
 C9 
A   14
 C10
A   15
 C11
A   16
CL1 
A   17
 C12
A   18
 C13
A   19
 C14
A   20
 H1 
A   21
 H2 
A   22
 H3 
A   23
 H4 
A   24
 H5 
A   25
 H6 
A   26
 H7 
A   27
 H8 
A   28
 H9 
A   29
 H10
A   30
 H11
A   31
 H12
A   32
 H13
A   33
 H14
A   34
 H15
A   35
 H16
A   36
 H17
A   37
 H18
A   38
 H19
M  END
>  <ref_pdb>  (96) 
x0451_0A

>  <ref_mols>  (96) 
x0451_0A,x0554_0A,x0556_0A,x0566_0A,x0310_0A,x0416_0A

>  <original SMILES>  (96) 
CC(C)(C)OC(=O)N1CC[C@H](N)c2cc(Cl)ccc21

>  <rationale>  (96) 
info info set:ROCS-BB-0RB;Warhead nanÅ to Cys110:SG; hbond:T126; hydroph_interaction:Y89; 

>  <∆∆G>  (96) 
-8.378891

>  <comRMSD>  (96) 
0.529931

>  <ROCS_TanimotoCombo>  (96) 
0.526

>  <ROCS_ShapeTanimoto>  (96) 
0.357

>  <ROCS_ColorTanimoto>  (96) 
0.168

>  <distance>  (96) 
nan

$$$$
EN300_12450171
     RDKit          3D

 38 39  0  0  0  0  0  0  0  0999 V2000
    9.8350   15.6900   21.2280 C   0  0  0  0  0  0  0  0  0  0  0  0
   11.0190   14.7510   21.3010 C   0  0  0  0  0  0  0  0  0  0  0  0
   12.1240   15.4000   22.0740 C   0  0  0  0  0  0  0  0  0  0  0  0
   11.5770   14.4250   19.8980 C   0  0  0  0  0  0  0  0  0  0  0  0
   10.6300   13.5370   21.9390 O   0  0  0  0  0  0  0  0  0  0  0  0
   10.3700   13.4770   23.2750 C   0  0  0  0  0  0  0  0  0  0  0  0
   10.4830   14.5580   24.2190 O   0  0  0  0  0  0  0  0  0  0  0  0
    9.9850   12.1990   23.6160 N   0  0  0  0  0  0  0  0  0  0  0  0
   10.9440   11.0820   23.4750 C   0  0  0  0  0  0  0  0  0  0  0  0
   10.2880    9.7300   23.1150 C   0  0  0  0  0  0  0  0  0  0  0  0
    9.1720    9.4090   24.0730 C   0  0  2  0  0  0  0  0  0  0  0  0
    8.3440    8.4560   23.5620 N   0  0  0  0  0  0  0  0  0  0  0  0
    8.4330   10.5910   24.6780 C   0  0  0  0  0  0  0  0  0  0  0  0
    7.2930   10.3730   25.5200 C   0  0  0  0  0  0  0  0  0  0  0  0
    6.5000   11.3040   26.1590 C   0  0  0  0  0  0  0  0  0  0  0  0
    6.9240   12.6120   25.9040 C   0  0  0  0  0  0  0  0  0  0  0  0
    6.2490   13.6330   26.4560 F   0  0  0  0  0  0  0  0  0  0  0  0
    8.0440   12.9040   25.0830 C   0  0  0  0  0  0  0  0  0  0  0  0
    8.8200   11.9180   24.4590 C   0  0  0  0  0  0  0  0  0  0  0  0
   10.1620   16.7120   21.0040 H   0  0  0  0  0  0  0  0  0  0  0  0
    9.1590   15.3890   20.4230 H   0  0  0  0  0  0  0  0  0  0  0  0
    9.2830   15.6980   22.1720 H   0  0  0  0  0  0  0  0  0  0  0  0
   12.6650   14.7700   22.7790 H   0  0  0  0  0  0  0  0  0  0  0  0
   12.8780   15.8030   21.3890 H   0  0  0  0  0  0  0  0  0  0  0  0
   11.6980   16.2470   22.6220 H   0  0  0  0  0  0  0  0  0  0  0  0
   10.8090   14.0330   19.2230 H   0  0  0  0  0  0  0  0  0  0  0  0
   12.4010   13.7170   19.9580 H   0  0  0  0  0  0  0  0  0  0  0  0
   11.9710   15.3480   19.4530 H   0  0  0  0  0  0  0  0  0  0  0  0
   11.4910   10.9930   24.4210 H   0  0  0  0  0  0  0  0  0  0  0  0
   11.6740   11.3750   22.7170 H   0  0  0  0  0  0  0  0  0  0  0  0
   11.0350    8.9350   23.2350 H   0  0  0  0  0  0  0  0  0  0  0  0
    9.9380    9.7150   22.0890 H   0  0  0  0  0  0  0  0  0  0  0  0
    9.6380    8.9270   24.9180 H   0  0  0  0  0  0  0  0  0  0  0  0
    8.3590    8.5020   22.5390 H   0  0  0  0  0  0  0  0  0  0  0  0
    8.7100    7.5350   23.8120 H   0  0  0  0  0  0  0  0  0  0  0  0
    7.0160    9.3240   25.6760 H   0  0  0  0  0  0  0  0  0  0  0  0
    5.6460   11.0520   26.7840 H   0  0  0  0  0  0  0  0  0  0  0  0
    8.2540   13.9610   24.9790 H   0  0  0  0  0  0  0  0  0  0  0  0
  1  2  1  0
  2  3  1  0
  2  4  1  0
  2  5  1  0
  5  6  1  0
  6  7  2  0
  6  8  1  0
  8  9  1  0
  9 10  1  0
 10 11  1  0
 11 12  1  0
 11 13  1  0
 13 14  2  0
 14 15  1  0
 15 16  2  0
 16 17  1  0
 16 18  1  0
 18 19  2  0
 19  8  1  0
 19 13  1  0
  1 20  1  0
  1 21  1  0
  1 22  1  0
  3 23  1  0
  3 24  1  0
  3 25  1  0
  4 26  1  0
  4 27  1  0
  4 28  1  0
  9 29  1  0
  9 30  1  0
 10 31  1  0
 10 32  1  0
 11 33  1  1
 12 34  1  0
 12 35  1  0
 14 36  1  0
 15 37  1  0
 18 38  1  0
A    1
 C1 
A    2
 C2 
A    3
 C3 
A    4
 C4 
A    5
 O1 
A    6
 C5 
A    7
 O2 
A    8
 N1 
A    9
 C6 
A   10
 C7 
A   11
 C8 
A   12
 N2 
A   13
 C9 
A   14
 C10
A   15
 C11
A   16
 C12
A   17
 F1 
A   18
 C13
A   19
 C14
A   20
 H1 
A   21
 H2 
A   22
 H3 
A   23
 H4 
A   24
 H5 
A   25
 H6 
A   26
 H7 
A   27
 H8 
A   28
 H9 
A   29
 H10
A   30
 H11
A   31
 H12
A   32
 H13
A   33
 H14
A   34
 H15
A   35
 H16
A   36
 H17
A   37
 H18
A   38
 H19
M  END
>  <ref_pdb>  (97) 
x0451_0A

>  <ref_mols>  (97) 
x0451_0A,x0554_0A,x0556_0A,x0566_0A,x0310_0A,x0416_0A

>  <original SMILES>  (97) 
CC(C)(C)OC(=O)N1CC[C@H](N)c2ccc(F)cc21

>  <rationale>  (97) 
info info set:ROCS-BB-0RB;Warhead nanÅ to Cys110:SG; hbond:T126; hydroph_interaction:Y89; 

>  <∆∆G>  (97) 
-8.365289

>  <comRMSD>  (97) 
0.548061

>  <ROCS_TanimotoCombo>  (97) 
0.525

>  <ROCS_ShapeTanimoto>  (97) 
0.357

>  <ROCS_ColorTanimoto>  (97) 
0.168

>  <distance>  (97) 
nan

$$$$
EN300_28281012
     RDKit          3D

 38 39  0  0  0  0  0  0  0  0999 V2000
   11.9550   15.0220   22.4250 C   0  0  0  0  0  0  0  0  0  0  0  0
   10.9530   14.3910   21.5350 C   0  0  0  0  0  0  0  0  0  0  0  0
    9.6870   14.9870   21.5100 C   0  0  0  0  0  0  0  0  0  0  0  0
   11.5410   14.3300   20.0880 C   0  0  0  0  0  0  0  0  0  0  0  0
   10.8170   13.0730   22.1640 O   0  0  0  0  0  0  0  0  0  0  0  0
   10.4790   12.9240   23.4810 C   0  0  0  0  0  0  0  0  0  0  0  0
   10.8020   13.6970   24.3750 O   0  0  0  0  0  0  0  0  0  0  0  0
    9.6460   11.7030   23.6900 N   0  0  0  0  0  0  0  0  0  0  0  0
    8.5580   11.7380   24.5680 C   0  0  0  0  0  0  0  0  0  0  0  0
    7.9440   13.0150   25.0250 C   0  0  0  0  0  0  0  0  0  0  0  0
    6.7990   12.9830   25.9520 C   0  0  0  0  0  0  0  0  0  0  0  0
    6.2690   11.6260   26.4200 C   0  0  0  0  0  0  0  0  0  0  0  0
    6.9220   10.4560   25.9320 C   0  0  0  0  0  0  0  0  0  0  0  0
    7.9910   10.6710   25.0630 C   0  0  0  0  0  0  0  0  0  0  0  0
    8.9310    9.7690   24.3480 C   0  0  0  0  0  0  0  0  0  0  0  0
    8.6800    8.3760   24.1110 O   0  0  0  0  0  0  0  0  0  0  0  0
   10.0790   10.3030   23.8080 C   0  0  0  0  0  0  0  0  0  0  0  0
   10.3340    9.5530   22.5770 C   0  0  0  0  0  0  0  0  0  0  0  0
   11.2070   10.3020   24.6030 C   0  0  0  0  0  0  0  0  0  0  0  0
   12.5160   14.2600   22.9750 H   0  0  0  0  0  0  0  0  0  0  0  0
   12.6790   15.6150   21.8540 H   0  0  0  0  0  0  0  0  0  0  0  0
   11.4470   15.6930   23.1240 H   0  0  0  0  0  0  0  0  0  0  0  0
    8.8710   14.4900   22.0370 H   0  0  0  0  0  0  0  0  0  0  0  0
    9.3470   15.0970   20.4740 H   0  0  0  0  0  0  0  0  0  0  0  0
    9.7560   15.9950   21.9340 H   0  0  0  0  0  0  0  0  0  0  0  0
   11.8370   15.2980   19.6780 H   0  0  0  0  0  0  0  0  0  0  0  0
   12.4350   13.7120   20.0440 H   0  0  0  0  0  0  0  0  0  0  0  0
   10.8200   13.8840   19.3960 H   0  0  0  0  0  0  0  0  0  0  0  0
    8.3050   13.9930   24.7020 H   0  0  0  0  0  0  0  0  0  0  0  0
    6.3940   13.9580   26.2500 H   0  0  0  0  0  0  0  0  0  0  0  0
    5.4170   11.6330   27.1060 H   0  0  0  0  0  0  0  0  0  0  0  0
    6.6890    9.4130   26.1560 H   0  0  0  0  0  0  0  0  0  0  0  0
    9.4570    8.9910   22.2590 H   0  0  0  0  0  0  0  0  0  0  0  0
   10.5910   10.2460   21.8580 H   0  0  0  0  0  0  0  0  0  0  0  0
   11.1610    8.8530   22.6940 H   0  0  0  0  0  0  0  0  0  0  0  0
   12.1240   10.2570   24.0220 H   0  0  0  0  0  0  0  0  0  0  0  0
   11.2570   11.2040   25.2180 H   0  0  0  0  0  0  0  0  0  0  0  0
   11.2120    9.4560   25.2860 H   0  0  0  0  0  0  0  0  0  0  0  0
  1  2  1  0
  2  3  1  0
  2  4  1  0
  2  5  1  0
  5  6  1  0
  6  7  2  0
  6  8  1  0
  8  9  1  0
  9 10  2  0
 10 11  1  0
 11 12  2  0
 12 13  1  0
 13 14  2  0
 14 15  1  0
 15 16  2  0
 15 17  1  0
 17 18  1  0
 17 19  1  0
 17  8  1  0
 14  9  1  0
  1 20  1  0
  1 21  1  0
  1 22  1  0
  3 23  1  0
  3 24  1  0
  3 25  1  0
  4 26  1  0
  4 27  1  0
  4 28  1  0
 10 29  1  0
 11 30  1  0
 12 31  1  0
 13 32  1  0
 18 33  1  0
 18 34  1  0
 18 35  1  0
 19 36  1  0
 19 37  1  0
 19 38  1  0
A    1
 C1 
A    2
 C2 
A    3
 C3 
A    4
 C4 
A    5
 O1 
A    6
 C5 
A    7
 O2 
A    8
 N1 
A    9
 C6 
A   10
 C7 
A   11
 C8 
A   12
 C9 
A   13
 C10
A   14
 C11
A   15
 C12
A   16
 O3 
A   17
 C13
A   18
 C14
A   19
 C15
A   20
 H1 
A   21
 H2 
A   22
 H3 
A   23
 H4 
A   24
 H5 
A   25
 H6 
A   26
 H7 
A   27
 H8 
A   28
 H9 
A   29
 H10
A   30
 H11
A   31
 H12
A   32
 H13
A   33
 H14
A   34
 H15
A   35
 H16
A   36
 H17
A   37
 H18
A   38
 H19
M  END
>  <ref_pdb>  (98) 
x0451_0A

>  <ref_mols>  (98) 
x0451_0A,x0554_0A,x0556_0A,x0566_0A,x0310_0A,x0416_0A

>  <original SMILES>  (98) 
CC(C)(C)OC(=O)N1c2ccccc2C(=O)C1(C)C

>  <rationale>  (98) 
info info set:ROCS-BB-0RB;Warhead nanÅ to Cys110:SG; hydroph_interaction:Y89+A110+V124; 

>  <∆∆G>  (98) 
-8.354221

>  <comRMSD>  (98) 
0.616493

>  <ROCS_TanimotoCombo>  (98) 
0.497

>  <ROCS_ShapeTanimoto>  (98) 
0.359

>  <ROCS_ColorTanimoto>  (98) 
0.138

>  <distance>  (98) 
nan

$$$$
Z31505259
     RDKit          3D

 46 48  0  0  0  0  0  0  0  0999 V2000
   12.2010   15.5970   20.5580 C   0  0  0  0  0  0  0  0  0  0  0  0
   11.4520   15.1200   21.7800 C   0  0  0  0  0  0  0  0  0  0  0  0
   10.8150   15.9180   22.4880 O   0  0  0  0  0  0  0  0  0  0  0  0
   11.6030   13.7630   21.9400 N   0  0  0  0  0  0  0  0  0  0  0  0
   11.0960   13.0040   22.9810 C   0  0  2  0  0  0  0  0  0  0  0  0
    9.6420   13.1070   23.2050 C   0  0  0  0  0  0  0  0  0  0  0  0
    9.1590   11.9280   23.7580 C   0  0  0  0  0  0  0  0  0  0  0  0
    9.5260   10.5950   23.5320 C   0  0  0  0  0  0  0  0  0  0  0  0
    8.7750    9.7530   24.3160 N   0  0  0  0  0  0  0  0  0  0  0  0
    7.9060   10.5010   25.0690 C   0  0  0  0  0  0  0  0  0  0  0  0
    6.8750   10.0770   26.0800 C   0  0  0  0  0  0  0  0  0  0  0  0
    5.9710   11.1080   26.8390 C   0  0  0  0  0  0  0  0  0  0  0  0
    6.2620   12.4140   26.4470 C   0  0  0  0  0  0  0  0  0  0  0  0
    7.3330   12.7590   25.4050 C   0  0  0  0  0  0  0  0  0  0  0  0
    8.1180   11.8460   24.7460 C   0  0  0  0  0  0  0  0  0  0  0  0
   11.7470   13.4540   24.2990 C   0  0  0  0  0  0  0  0  0  0  0  0
   11.1260   14.2490   25.0100 O   0  0  0  0  0  0  0  0  0  0  0  0
   12.9430   12.9320   24.5800 N   0  0  0  0  0  0  0  0  0  0  0  0
   13.3720   12.0660   23.6950 C   0  0  0  0  0  0  0  0  0  0  0  0
   13.4310   12.7520   25.8990 C   0  0  0  0  0  0  0  0  0  0  0  0
   12.7650   13.5690   26.9880 C   0  0  0  0  0  0  0  0  0  0  0  0
   13.2540   13.4480   28.3940 C   0  0  0  0  0  0  0  0  0  0  0  0
   14.4000   12.4740   28.6410 C   0  0  0  0  0  0  0  0  0  0  0  0
   14.9520   11.7510   27.5670 C   0  0  0  0  0  0  0  0  0  0  0  0
   14.4920   11.8800   26.2370 C   0  0  0  0  0  0  0  0  0  0  0  0
   13.1170   16.1180   20.8530 H   0  0  0  0  0  0  0  0  0  0  0  0
   11.5730   16.2670   19.9660 H   0  0  0  0  0  0  0  0  0  0  0  0
   12.4910   14.7610   19.9120 H   0  0  0  0  0  0  0  0  0  0  0  0
   11.6930   13.2110   21.0890 H   0  0  0  0  0  0  0  0  0  0  0  0
   11.3450   11.9560   22.7820 H   0  0  0  0  0  0  0  0  0  0  0  0
    9.0680   13.3760   22.3220 H   0  0  0  0  0  0  0  0  0  0  0  0
    9.4400   13.9090   23.9210 H   0  0  0  0  0  0  0  0  0  0  0  0
   10.2710   10.1530   22.8700 H   0  0  0  0  0  0  0  0  0  0  0  0
    8.8430    8.7360   24.3450 H   0  0  0  0  0  0  0  0  0  0  0  0
    6.6830    9.0580   26.3530 H   0  0  0  0  0  0  0  0  0  0  0  0
    5.2150   10.8160   27.5770 H   0  0  0  0  0  0  0  0  0  0  0  0
    5.6990   13.2240   26.9040 H   0  0  0  0  0  0  0  0  0  0  0  0
    7.5050   13.8090   25.1470 H   0  0  0  0  0  0  0  0  0  0  0  0
   14.4460   11.9870   23.7990 H   0  0  0  0  0  0  0  0  0  0  0  0
   13.0880   12.3510   22.6780 H   0  0  0  0  0  0  0  0  0  0  0  0
   12.9230   11.0960   23.9220 H   0  0  0  0  0  0  0  0  0  0  0  0
   11.9380   14.2550   26.7630 H   0  0  0  0  0  0  0  0  0  0  0  0
   12.8110   14.0250   29.2180 H   0  0  0  0  0  0  0  0  0  0  0  0
   14.7930   12.3410   29.6580 H   0  0  0  0  0  0  0  0  0  0  0  0
   15.7710   11.0830   27.8550 H   0  0  0  0  0  0  0  0  0  0  0  0
   14.9920   11.2790   25.4820 H   0  0  0  0  0  0  0  0  0  0  0  0
  1  2  1  0
  2  3  2  0
  2  4  1  0
  4  5  1  0
  5  6  1  0
  6  7  1  0
  7  8  2  0
  8  9  1  0
  9 10  1  0
 10 11  2  0
 11 12  1  0
 12 13  2  0
 13 14  1  0
 14 15  2  0
  5 16  1  0
 16 17  2  0
 16 18  1  0
 18 19  1  0
 18 20  1  0
 20 21  2  0
 21 22  1  0
 22 23  2  0
 23 24  1  0
 24 25  2  0
 15  7  1  0
 25 20  1  0
 15 10  1  0
  1 26  1  0
  1 27  1  0
  1 28  1  0
  4 29  1  0
  5 30  1  6
  6 31  1  0
  6 32  1  0
  8 33  1  0
  9 34  1  0
 11 35  1  0
 12 36  1  0
 13 37  1  0
 14 38  1  0
 19 39  1  0
 19 40  1  0
 19 41  1  0
 21 42  1  0
 22 43  1  0
 23 44  1  0
 24 45  1  0
 25 46  1  0
A    1
 C1 
A    2
 C2 
A    3
 O1 
A    4
 N1 
A    5
 C3 
A    6
 C4 
A    7
 C5 
A    8
 C6 
A    9
 N2 
A   10
 C7 
A   11
 C8 
A   12
 C9 
A   13
 C10
A   14
 C11
A   15
 C12
A   16
 C13
A   17
 O2 
A   18
 N3 
A   19
 C14
A   20
 C15
A   21
 C16
A   22
 C17
A   23
 C18
A   24
 C19
A   25
 C20
A   26
 H1 
A   27
 H2 
A   28
 H3 
A   29
 H4 
A   30
 H5 
A   31
 H6 
A   32
 H7 
A   33
 H8 
A   34
 H9 
A   35
 H10
A   36
 H11
A   37
 H12
A   38
 H13
A   39
 H14
A   40
 H15
A   41
 H16
A   42
 H17
A   43
 H18
A   44
 H19
A   45
 H20
A   46
 H21
M  END
>  <ref_pdb>  (99) 
x0451_0A

>  <ref_mols>  (99) 
x0451_0A,x0554_0A,x0556_0A,x0566_0A,x0310_0A,x0416_0A

>  <original SMILES>  (99) 
CC(=O)N[C@H](Cc1c[nH]c2ccccc12)C(=O)N(C)c1ccccc1

>  <rationale>  (99) 
info info set:ROCS-PPI;Warhead nanÅ to Cys110:SG; hbond:S87+S125; hydroph_interaction:Y89+Y90+P107; 

>  <∆∆G>  (99) 
-8.353916

>  <comRMSD>  (99) 
0.597615

>  <ROCS_TanimotoCombo>  (99) 
0.534

>  <ROCS_ShapeTanimoto>  (99) 
0.365

>  <ROCS_ColorTanimoto>  (99) 
0.169

>  <distance>  (99) 
nan

$$$$
Z383844704
     RDKit          3D

 44 46  0  0  0  0  0  0  0  0999 V2000
   13.0850   14.9950   19.4010 C   0  0  0  0  0  0  0  0  0  0  0  0
   11.7910   15.2920   19.9710 C   0  0  0  0  0  0  0  0  0  0  0  0
   10.9860   16.0610   19.1140 N   0  0  0  0  0  0  0  0  0  0  0  0
    9.9000   16.1480   19.9240 O   0  0  0  0  0  0  0  0  0  0  0  0
   10.1040   15.4790   21.1180 C   0  0  0  0  0  0  0  0  0  0  0  0
    8.9790   15.4830   22.1170 C   0  0  0  0  0  0  0  0  0  0  0  0
   11.3590   14.9110   21.1670 C   0  0  0  0  0  0  0  0  0  0  0  0
   12.0190   14.1190   22.2190 C   0  0  0  0  0  0  0  0  0  0  0  0
   11.1720   13.6390   23.2270 C   0  0  0  0  0  0  0  0  0  0  0  0
   10.7130   14.3130   24.1340 O   0  0  0  0  0  0  0  0  0  0  0  0
   10.9430   12.2880   23.0240 N   0  0  0  0  0  0  0  0  0  0  0  0
    9.9360   11.4820   23.6000 C   0  0  0  0  0  0  0  0  0  0  0  0
    9.7470   10.1430   23.3110 C   0  0  0  0  0  0  0  0  0  0  0  0
    8.7470    9.3980   23.8970 C   0  0  0  0  0  0  0  0  0  0  0  0
    7.8650    9.9470   24.8190 C   0  0  0  0  0  0  0  0  0  0  0  0
    8.0160   11.3000   25.1490 C   0  0  0  0  0  0  0  0  0  0  0  0
    7.2420   12.0060   26.0420 O   0  0  0  0  0  0  0  0  0  0  0  0
    5.8300   11.7590   26.0670 C   0  0  0  0  0  0  0  0  0  0  0  0
    5.2390   11.9750   27.3020 C   0  0  0  0  0  0  0  0  0  0  0  0
    6.0400   11.9950   28.4160 C   0  0  0  0  0  0  0  0  0  0  0  0
    5.5280   12.1940   29.6980 C   0  0  0  0  0  0  0  0  0  0  0  0
    4.0690   12.3910   29.7880 C   0  0  0  0  0  0  0  0  0  0  0  0
    3.3860   12.3540   28.5720 C   0  0  0  0  0  0  0  0  0  0  0  0
    3.9030   12.1570   27.3490 N   0  0  0  0  0  0  0  0  0  0  0  0
    9.0470   12.0560   24.5360 C   0  0  0  0  0  0  0  0  0  0  0  0
   13.7950   15.4550   20.0560 H   0  0  0  0  0  0  0  0  0  0  0  0
   13.2220   13.9170   19.3380 H   0  0  0  0  0  0  0  0  0  0  0  0
   13.1490   15.4300   18.4090 H   0  0  0  0  0  0  0  0  0  0  0  0
    8.5550   14.4750   22.1820 H   0  0  0  0  0  0  0  0  0  0  0  0
    8.1620   16.1670   21.9080 H   0  0  0  0  0  0  0  0  0  0  0  0
    9.3540   15.7470   23.1120 H   0  0  0  0  0  0  0  0  0  0  0  0
   12.6760   13.3440   21.8380 H   0  0  0  0  0  0  0  0  0  0  0  0
   12.7360   14.7860   22.6940 H   0  0  0  0  0  0  0  0  0  0  0  0
   11.2330   11.9490   22.1100 H   0  0  0  0  0  0  0  0  0  0  0  0
   10.4140    9.6510   22.5870 H   0  0  0  0  0  0  0  0  0  0  0  0
    8.6420    8.3380   23.6290 H   0  0  0  0  0  0  0  0  0  0  0  0
    7.0950    9.3210   25.2550 H   0  0  0  0  0  0  0  0  0  0  0  0
    5.6160   10.8180   25.5740 H   0  0  0  0  0  0  0  0  0  0  0  0
    5.4080   12.5390   25.4330 H   0  0  0  0  0  0  0  0  0  0  0  0
    7.0890   11.8540   28.2770 H   0  0  0  0  0  0  0  0  0  0  0  0
    6.1670   12.2040   30.5760 H   0  0  0  0  0  0  0  0  0  0  0  0
    3.5530   12.5560   30.7390 H   0  0  0  0  0  0  0  0  0  0  0  0
    2.3060   12.5080   28.6830 H   0  0  0  0  0  0  0  0  0  0  0  0
    9.1390   13.1030   24.8110 H   0  0  0  0  0  0  0  0  0  0  0  0
  1  2  1  0
  2  3  2  0
  3  4  1  0
  4  5  1  0
  5  6  1  0
  5  7  2  0
  7  8  1  0
  8  9  1  0
  9 10  2  0
  9 11  1  0
 11 12  1  0
 12 13  2  0
 13 14  1  0
 14 15  2  0
 15 16  1  0
 16 17  1  0
 17 18  1  0
 18 19  1  0
 19 20  2  0
 20 21  1  0
 21 22  2  0
 22 23  1  0
 23 24  2  0
 16 25  2  0
  7  2  1  0
 25 12  1  0
 24 19  1  0
  1 26  1  0
  1 27  1  0
  1 28  1  0
  6 29  1  0
  6 30  1  0
  6 31  1  0
  8 32  1  0
  8 33  1  0
 11 34  1  0
 13 35  1  0
 14 36  1  0
 15 37  1  0
 18 38  1  0
 18 39  1  0
 20 40  1  0
 21 41  1  0
 22 42  1  0
 23 43  1  0
 25 44  1  0
A    1
 C1 
A    2
 C2 
A    3
 N1 
A    4
 O1 
A    5
 C3 
A    6
 C4 
A    7
 C5 
A    8
 C6 
A    9
 C7 
A   10
 O2 
A   11
 N2 
A   12
 C8 
A   13
 C9 
A   14
 C10
A   15
 C11
A   16
 C12
A   17
 O3 
A   18
 C13
A   19
 C14
A   20
 C15
A   21
 C16
A   22
 C17
A   23
 C18
A   24
 N3 
A   25
 C19
A   26
 H1 
A   27
 H2 
A   28
 H3 
A   29
 H4 
A   30
 H5 
A   31
 H6 
A   32
 H7 
A   33
 H8 
A   34
 H9 
A   35
 H10
A   36
 H11
A   37
 H12
A   38
 H13
A   39
 H14
A   40
 H15
A   41
 H16
A   42
 H17
A   43
 H18
A   44
 H19
M  END
>  <ref_pdb>  (100) 
x0451_0A

>  <ref_mols>  (100) 
x0451_0A,x0554_0A,x0556_0A,x0566_0A,x0310_0A,x0416_0A

>  <original SMILES>  (100) 
Cc1noc(C)c1CC(=O)Nc1cccc(OCc2ccccn2)c1

>  <rationale>  (100) 
info info set:ROCS-PPI;Warhead nanÅ to Cys110:SG; hbond:S125; hydroph_interaction:Y89+Y90+P107; pistack:H21; 

>  <∆∆G>  (100) 
-8.345587

>  <comRMSD>  (100) 
0.887592

>  <ROCS_TanimotoCombo>  (100) 
0.53

>  <ROCS_ShapeTanimoto>  (100) 
0.353

>  <ROCS_ColorTanimoto>  (100) 
0.177

>  <distance>  (100) 
nan

$$$$
Z56995158
     RDKit          3D

 32 32  0  0  0  0  0  0  0  0999 V2000
   10.0130    9.3790   22.8380 C   0  0  0  0  0  0  0  0  0  0  0  0
    9.6690    9.9620   24.1420 C   0  0  2  0  0  0  0  0  0  0  0  0
    8.2950    9.3850   24.5190 C   0  0  0  0  0  0  0  0  0  0  0  0
    7.3100   10.0770   25.3980 C   0  0  0  0  0  0  0  0  0  0  0  0
    7.5750   11.5730   25.4720 C   0  0  0  0  0  0  0  0  0  0  0  0
    8.4100   12.0520   24.2780 C   0  0  0  0  0  0  0  0  0  0  0  0
    9.6850   11.5060   24.2230 C   0  0  2  0  0  0  0  0  0  0  0  0
   10.5190   12.1510   23.2040 N   0  0  0  0  0  0  0  0  0  0  0  0
   10.9630   13.4410   23.3360 C   0  0  0  0  0  0  0  0  0  0  0  0
   10.6280   14.1990   24.2390 O   0  0  0  0  0  0  0  0  0  0  0  0
   11.8200   13.7410   22.3270 N   0  0  0  0  0  0  0  0  0  0  0  0
   11.7830   15.0150   21.8340 C   0  0  0  0  0  0  0  0  0  0  0  0
   11.4580   15.9970   22.5130 O   0  0  0  0  0  0  0  0  0  0  0  0
   12.1850   15.1100   20.3730 C   0  0  0  0  0  0  0  0  0  0  0  0
   10.8660   15.7430   19.3610 Cl  0  0  0  0  0  0  0  0  0  0  0  0
    9.2120    8.7540   22.4470 H   0  0  0  0  0  0  0  0  0  0  0  0
   10.8960    8.7420   22.9380 H   0  0  0  0  0  0  0  0  0  0  0  0
   10.2430   10.1480   22.1150 H   0  0  0  0  0  0  0  0  0  0  0  0
   10.4560    9.6180   24.8240 H   0  0  0  0  0  0  0  0  0  0  0  0
    8.4190    8.3630   24.8860 H   0  0  0  0  0  0  0  0  0  0  0  0
    7.7930    9.2690   23.5620 H   0  0  0  0  0  0  0  0  0  0  0  0
    7.3450    9.6660   26.4100 H   0  0  0  0  0  0  0  0  0  0  0  0
    6.2950    9.8850   25.0450 H   0  0  0  0  0  0  0  0  0  0  0  0
    6.6440   12.1440   25.5070 H   0  0  0  0  0  0  0  0  0  0  0  0
    8.1120   11.8060   26.3990 H   0  0  0  0  0  0  0  0  0  0  0  0
    7.8640   11.8570   23.3560 H   0  0  0  0  0  0  0  0  0  0  0  0
    8.4910   13.1430   24.3500 H   0  0  0  0  0  0  0  0  0  0  0  0
   10.1630   11.7690   25.1760 H   0  0  0  0  0  0  0  0  0  0  0  0
   10.6500   11.7360   22.2740 H   0  0  0  0  0  0  0  0  0  0  0  0
   11.6920   13.0210   21.6020 H   0  0  0  0  0  0  0  0  0  0  0  0
   12.4420   14.1150   20.0010 H   0  0  0  0  0  0  0  0  0  0  0  0
   13.0420   15.7650   20.2950 H   0  0  0  0  0  0  0  0  0  0  0  0
  1  2  1  0
  2  3  1  0
  3  4  1  0
  4  5  1  0
  5  6  1  0
  6  7  1  0
  7  8  1  0
  8  9  1  0
  9 10  2  0
  9 11  1  0
 11 12  1  0
 12 13  2  0
 12 14  1  0
 14 15  1  0
  7  2  1  0
  1 16  1  0
  1 17  1  0
  1 18  1  0
  2 19  1  1
  3 20  1  0
  3 21  1  0
  4 22  1  0
  4 23  1  0
  5 24  1  0
  5 25  1  0
  6 26  1  0
  6 27  1  0
  7 28  1  1
  8 29  1  0
 11 30  1  0
 14 31  1  0
 14 32  1  0
A    1
 C1 
A    2
 C2 
A    3
 C3 
A    4
 C4 
A    5
 C5 
A    6
 C6 
A    7
 C7 
A    8
 N1 
A    9
 C8 
A   10
 O1 
A   11
 N2 
A   12
 C9 
A   13
 O2 
A   14
 C10
A   15
CL1 
A   16
 H1 
A   17
 H2 
A   18
 H3 
A   19
 H4 
A   20
 H5 
A   21
 H6 
A   22
 H7 
A   23
 H8 
A   24
 H9 
A   25
 H10
A   26
 H11
A   27
 H12
A   28
 H13
A   29
 H14
A   30
 H15
A   31
 H16
A   32
 H17
M  END
>  <ref_pdb>  (101) 
x0451_0A

>  <ref_mols>  (101) 
x0451_0A,x0554_0A,x0556_0A,x0566_0A,x0310_0A,x0416_0A

>  <original SMILES>  (101) 
C[C@@H]1CCCC[C@@H]1NC(=O)NC(=O)CCl

>  <rationale>  (101) 
info info set:ROCS-electro;Warhead 6.074165545982425Å to Cys110:SG; hbond:S87+S125+H21; hydroph_interaction:V124; 

>  <∆∆G>  (101) 
-8.34279

>  <comRMSD>  (101) 
0.784314

>  <ROCS_TanimotoCombo>  (101) 
0.467

>  <ROCS_ShapeTanimoto>  (101) 
0.279

>  <ROCS_ColorTanimoto>  (101) 
0.188

>  <distance>  (101) 
6.074166

$$$$
EN300_396498
     RDKit          3D

 38 39  0  0  0  0  0  0  0  0999 V2000
   11.7090   14.3960   19.9490 C   0  0  0  0  0  0  0  0  0  0  0  0
   11.0270   14.5850   21.3240 C   0  0  0  0  0  0  0  0  0  0  0  0
   12.0270   15.3490   22.1690 C   0  0  0  0  0  0  0  0  0  0  0  0
    9.7480   15.4120   21.2100 C   0  0  0  0  0  0  0  0  0  0  0  0
   10.8070   13.3630   22.0900 O   0  0  0  0  0  0  0  0  0  0  0  0
   10.3770   13.3780   23.3920 C   0  0  0  0  0  0  0  0  0  0  0  0
   10.3640   14.3680   24.1050 O   0  0  0  0  0  0  0  0  0  0  0  0
    9.9970   12.1020   23.7120 N   0  0  0  0  0  0  0  0  0  0  0  0
   10.8990   11.0500   23.5540 C   0  0  0  0  0  0  0  0  0  0  0  0
   10.2230    9.7550   23.2180 C   0  0  0  0  0  0  0  0  0  0  0  0
    9.2050    9.3090   24.0450 C   0  0  2  0  0  0  0  0  0  0  0  0
    8.3090    8.5030   23.5570 N   0  0  0  0  0  0  0  0  0  0  0  0
    8.4520   10.4910   24.6860 C   0  0  0  0  0  0  0  0  0  0  0  0
    7.3230   10.3090   25.4930 C   0  0  0  0  0  0  0  0  0  0  0  0
    6.6300   11.3460   26.0780 C   0  0  0  0  0  0  0  0  0  0  0  0
    7.0170   12.6790   25.9000 C   0  0  0  0  0  0  0  0  0  0  0  0
    8.1480   12.9050   25.1010 C   0  0  0  0  0  0  0  0  0  0  0  0
    8.8730   11.8480   24.4940 C   0  0  0  0  0  0  0  0  0  0  0  0
   10.9840   14.1120   19.1780 H   0  0  0  0  0  0  0  0  0  0  0  0
   12.1930   15.3150   19.6000 H   0  0  0  0  0  0  0  0  0  0  0  0
   12.4840   13.6330   19.9790 H   0  0  0  0  0  0  0  0  0  0  0  0
   12.8170   15.7910   21.5470 H   0  0  0  0  0  0  0  0  0  0  0  0
   11.5450   16.1630   22.7190 H   0  0  0  0  0  0  0  0  0  0  0  0
   12.5060   14.6920   22.9040 H   0  0  0  0  0  0  0  0  0  0  0  0
    8.9640   15.0040   21.8600 H   0  0  0  0  0  0  0  0  0  0  0  0
    9.9260   16.4580   21.4750 H   0  0  0  0  0  0  0  0  0  0  0  0
    9.3450   15.3990   20.1920 H   0  0  0  0  0  0  0  0  0  0  0  0
   11.4490   10.8880   24.4850 H   0  0  0  0  0  0  0  0  0  0  0  0
   11.6070   11.3520   22.7780 H   0  0  0  0  0  0  0  0  0  0  0  0
    9.8530    9.7930   22.1990 H   0  0  0  0  0  0  0  0  0  0  0  0
   11.0070    8.9840   23.2000 H   0  0  0  0  0  0  0  0  0  0  0  0
    9.6020    8.6560   24.7930 H   0  0  0  0  0  0  0  0  0  0  0  0
    8.3240    8.5680   22.5340 H   0  0  0  0  0  0  0  0  0  0  0  0
    8.5600    7.5420   23.7840 H   0  0  0  0  0  0  0  0  0  0  0  0
    6.9650    9.2900   25.6740 H   0  0  0  0  0  0  0  0  0  0  0  0
    5.7520   11.1550   26.7020 H   0  0  0  0  0  0  0  0  0  0  0  0
    6.4740   13.5000   26.3580 H   0  0  0  0  0  0  0  0  0  0  0  0
    8.3970   13.9670   25.0070 H   0  0  0  0  0  0  0  0  0  0  0  0
  1  2  1  0
  2  3  1  0
  2  4  1  0
  2  5  1  0
  5  6  1  0
  6  7  2  0
  6  8  1  0
  8  9  1  0
  9 10  1  0
 10 11  1  0
 11 12  1  0
 11 13  1  0
 13 14  2  0
 14 15  1  0
 15 16  2  0
 16 17  1  0
 17 18  2  0
 18  8  1  0
 18 13  1  0
  1 19  1  0
  1 20  1  0
  1 21  1  0
  3 22  1  0
  3 23  1  0
  3 24  1  0
  4 25  1  0
  4 26  1  0
  4 27  1  0
  9 28  1  0
  9 29  1  0
 10 30  1  0
 10 31  1  0
 11 32  1  1
 12 33  1  0
 12 34  1  0
 14 35  1  0
 15 36  1  0
 16 37  1  0
 17 38  1  0
A    1
 C1 
A    2
 C2 
A    3
 C3 
A    4
 C4 
A    5
 O1 
A    6
 C5 
A    7
 O2 
A    8
 N1 
A    9
 C6 
A   10
 C7 
A   11
 C8 
A   12
 N2 
A   13
 C9 
A   14
 C10
A   15
 C11
A   16
 C12
A   17
 C13
A   18
 C14
A   19
 H1 
A   20
 H2 
A   21
 H3 
A   22
 H4 
A   23
 H5 
A   24
 H6 
A   25
 H7 
A   26
 H8 
A   27
 H9 
A   28
 H10
A   29
 H11
A   30
 H12
A   31
 H13
A   32
 H14
A   33
 H15
A   34
 H16
A   35
 H17
A   36
 H18
A   37
 H19
A   38
 H20
M  END
>  <ref_pdb>  (102) 
x0451_0A

>  <ref_mols>  (102) 
x0451_0A,x0554_0A,x0556_0A,x0566_0A,x0310_0A,x0416_0A

>  <original SMILES>  (102) 
CC(C)(C)OC(=O)N1CC[C@H](N)c2ccccc21

>  <rationale>  (102) 
info info set:ROCS-BB-0RB;Warhead nanÅ to Cys110:SG; hbond:T126; hydroph_interaction:Y89; 

>  <∆∆G>  (102) 
-8.318906

>  <comRMSD>  (102) 
0.495456

>  <ROCS_TanimotoCombo>  (102) 
0.516

>  <ROCS_ShapeTanimoto>  (102) 
0.35

>  <ROCS_ColorTanimoto>  (102) 
0.166

>  <distance>  (102) 
nan

$$$$
Z56869435
     RDKit          3D

 31 31  0  0  0  0  0  0  0  0999 V2000
    7.9330   14.0480   23.8000 C   0  0  0  0  0  0  0  0  0  0  0  0
    8.1960   12.6150   24.1490 C   0  0  0  0  0  0  0  0  0  0  0  0
    7.2930   11.8920   24.9420 C   0  0  0  0  0  0  0  0  0  0  0  0
    7.4970   10.5740   25.2640 C   0  0  0  0  0  0  0  0  0  0  0  0
    8.6090    9.9400   24.8050 C   0  0  0  0  0  0  0  0  0  0  0  0
    9.5580   10.5790   24.0220 C   0  0  0  0  0  0  0  0  0  0  0  0
   10.6400    9.9350   23.5900 C   0  0  0  0  0  0  0  0  0  0  0  0
   11.5970    9.8550   24.5770 C   0  0  0  0  0  0  0  0  0  0  0  0
   10.2410    8.6170   22.9740 C   0  0  0  0  0  0  0  0  0  0  0  0
    9.3460   11.9300   23.6990 C   0  0  0  0  0  0  0  0  0  0  0  0
   10.2830   12.6440   22.9070 N   0  0  0  0  0  0  0  0  0  0  0  0
   11.0010   13.7490   23.3160 C   0  0  0  0  0  0  0  0  0  0  0  0
   10.8750   14.3270   24.3910 O   0  0  0  0  0  0  0  0  0  0  0  0
   11.9990   14.2170   22.2820 C   0  0  0  0  0  0  0  0  0  0  0  0
   11.2480   15.4000   21.1800 Cl  0  0  0  0  0  0  0  0  0  0  0  0
    8.4720   14.3780   22.9110 H   0  0  0  0  0  0  0  0  0  0  0  0
    6.8770   14.2110   23.5530 H   0  0  0  0  0  0  0  0  0  0  0  0
    8.2050   14.6960   24.6420 H   0  0  0  0  0  0  0  0  0  0  0  0
    6.3930   12.3950   25.3130 H   0  0  0  0  0  0  0  0  0  0  0  0
    6.7710   10.0360   25.8840 H   0  0  0  0  0  0  0  0  0  0  0  0
    8.7510    8.8900   25.0690 H   0  0  0  0  0  0  0  0  0  0  0  0
   11.0920   10.4800   22.7590 H   0  0  0  0  0  0  0  0  0  0  0  0
   12.5960    9.9060   24.1800 H   0  0  0  0  0  0  0  0  0  0  0  0
   11.5980   10.6830   25.2770 H   0  0  0  0  0  0  0  0  0  0  0  0
   11.5530    8.9470   25.1530 H   0  0  0  0  0  0  0  0  0  0  0  0
   11.0210    7.8820   23.0410 H   0  0  0  0  0  0  0  0  0  0  0  0
   10.0050    8.7830   21.9240 H   0  0  0  0  0  0  0  0  0  0  0  0
    9.3370    8.2030   23.4210 H   0  0  0  0  0  0  0  0  0  0  0  0
   10.6710   12.1920   22.0660 H   0  0  0  0  0  0  0  0  0  0  0  0
   12.8780   14.6710   22.7350 H   0  0  0  0  0  0  0  0  0  0  0  0
   12.3320   13.3710   21.6730 H   0  0  0  0  0  0  0  0  0  0  0  0
  1  2  1  0
  2  3  2  0
  3  4  1  0
  4  5  2  0
  5  6  1  0
  6  7  1  0
  7  8  1  0
  7  9  1  0
  6 10  2  0
 10 11  1  0
 11 12  1  0
 12 13  2  0
 12 14  1  0
 14 15  1  0
 10  2  1  0
  1 16  1  0
  1 17  1  0
  1 18  1  0
  3 19  1  0
  4 20  1  0
  5 21  1  0
  7 22  1  0
  8 23  1  0
  8 24  1  0
  8 25  1  0
  9 26  1  0
  9 27  1  0
  9 28  1  0
 11 29  1  0
 14 30  1  0
 14 31  1  0
A    1
 C1 
A    2
 C2 
A    3
 C3 
A    4
 C4 
A    5
 C5 
A    6
 C6 
A    7
 C7 
A    8
 C8 
A    9
 C9 
A   10
 C10
A   11
 N1 
A   12
 C11
A   13
 O1 
A   14
 C12
A   15
CL1 
A   16
 H1 
A   17
 H2 
A   18
 H3 
A   19
 H4 
A   20
 H5 
A   21
 H6 
A   22
 H7 
A   23
 H8 
A   24
 H9 
A   25
 H10
A   26
 H11
A   27
 H12
A   28
 H13
A   29
 H14
A   30
 H15
A   31
 H16
M  END
>  <ref_pdb>  (103) 
x0451_0A

>  <ref_mols>  (103) 
x0451_0A,x0554_0A,x0556_0A,x0566_0A,x0310_0A,x0416_0A

>  <original SMILES>  (103) 
Cc1cccc(C(C)C)c1NC(=O)CCl

>  <rationale>  (103) 
info info set:ROCS-electro;Warhead 4.3654001672240765Å to Cys110:SG; hbond:S125; hydroph_interaction:A110+V124+D109; 

>  <∆∆G>  (103) 
-8.306822

>  <comRMSD>  (103) 
0.486877

>  <ROCS_TanimotoCombo>  (103) 
0.406

>  <ROCS_ShapeTanimoto>  (103) 
0.27

>  <ROCS_ColorTanimoto>  (103) 
0.135

>  <distance>  (103) 
4.3654

$$$$
Z2867490836
     RDKit          3D

 33 34  0  0  0  0  0  0  0  0999 V2000
   11.8350   15.0120   21.3350 C   0  0  0  0  0  0  0  0  0  0  0  0
   11.8710   13.7890   22.1720 C   0  0  0  0  0  0  0  0  0  0  0  0
   11.0260   13.4880   23.2590 C   0  0  0  0  0  0  0  0  0  0  0  0
   10.7800   14.2260   24.1990 O   0  0  0  0  0  0  0  0  0  0  0  0
   10.5230   12.2150   23.0850 N   0  0  0  0  0  0  0  0  0  0  0  0
    9.4540   11.6180   23.8100 C   0  0  0  0  0  0  0  0  0  0  0  0
    8.5230   12.4460   24.5570 C   0  0  0  0  0  0  0  0  0  0  0  0
    7.4610   11.6310   25.2660 C   0  0  0  0  0  0  0  0  0  0  0  0
    6.5620   12.5640   25.9870 C   0  0  0  0  0  0  0  0  0  0  0  0
    6.2000   12.4700   27.2960 C   0  0  0  0  0  0  0  0  0  0  0  0
    5.3300   13.5460   27.6110 C   0  0  0  0  0  0  0  0  0  0  0  0
    5.1390   14.3100   26.5270 N   0  0  0  0  0  0  0  0  0  0  0  0
    5.8910   13.7050   25.5530 N   0  0  0  0  0  0  0  0  0  0  0  0
    5.9070   14.2920   24.2300 C   0  0  0  0  0  0  0  0  0  0  0  0
    7.3700   10.2500   25.2230 C   0  0  0  0  0  0  0  0  0  0  0  0
    8.3020    9.5430   24.4830 C   0  0  0  0  0  0  0  0  0  0  0  0
    9.3250   10.1990   23.7840 C   0  0  0  0  0  0  0  0  0  0  0  0
   10.2650    9.3130   23.0140 C   0  0  0  0  0  0  0  0  0  0  0  0
   11.1050   15.8030   21.5300 H   0  0  0  0  0  0  0  0  0  0  0  0
   12.5390   15.1510   20.5080 H   0  0  0  0  0  0  0  0  0  0  0  0
   12.6130   13.0440   21.9330 H   0  0  0  0  0  0  0  0  0  0  0  0
   10.7290   11.8080   22.1580 H   0  0  0  0  0  0  0  0  0  0  0  0
    8.5550   13.5290   24.6200 H   0  0  0  0  0  0  0  0  0  0  0  0
    6.5270   11.6990   27.9740 H   0  0  0  0  0  0  0  0  0  0  0  0
    4.8620   13.7650   28.5660 H   0  0  0  0  0  0  0  0  0  0  0  0
    6.2230   15.3230   24.3210 H   0  0  0  0  0  0  0  0  0  0  0  0
    4.9010   14.2450   23.8020 H   0  0  0  0  0  0  0  0  0  0  0  0
    6.5920   13.7290   23.5930 H   0  0  0  0  0  0  0  0  0  0  0  0
    6.5860    9.7170   25.7550 H   0  0  0  0  0  0  0  0  0  0  0  0
    8.2330    8.4570   24.4500 H   0  0  0  0  0  0  0  0  0  0  0  0
   10.9450    8.7990   23.6980 H   0  0  0  0  0  0  0  0  0  0  0  0
    9.7010    8.5800   22.4320 H   0  0  0  0  0  0  0  0  0  0  0  0
   10.8780    9.8850   22.3120 H   0  0  0  0  0  0  0  0  0  0  0  0
  1  2  2  0
  2  3  1  0
  3  4  2  0
  3  5  1  0
  5  6  1  0
  6  7  2  0
  7  8  1  0
  8  9  1  0
  9 10  2  0
 10 11  1  0
 11 12  2  0
 12 13  1  0
 13 14  1  0
  8 15  2  0
 15 16  1  0
 16 17  2  0
 17 18  1  0
 17  6  1  0
 13  9  1  0
  1 19  1  0
  1 20  1  0
  2 21  1  0
  5 22  1  0
  7 23  1  0
 10 24  1  0
 11 25  1  0
 14 26  1  0
 14 27  1  0
 14 28  1  0
 15 29  1  0
 16 30  1  0
 18 31  1  0
 18 32  1  0
 18 33  1  0
A    1
 C1 
A    2
 C2 
A    3
 C3 
A    4
 O1 
A    5
 N1 
A    6
 C4 
A    7
 C5 
A    8
 C6 
A    9
 C7 
A   10
 C8 
A   11
 C9 
A   12
 N2 
A   13
 N3 
A   14
 C10
A   15
 C11
A   16
 C12
A   17
 C13
A   18
 C14
A   19
 H1 
A   20
 H2 
A   21
 H3 
A   22
 H4 
A   23
 H5 
A   24
 H6 
A   25
 H7 
A   26
 H8 
A   27
 H9 
A   28
 H10
A   29
 H11
A   30
 H12
A   31
 H13
A   32
 H14
A   33
 H15
M  END
>  <ref_pdb>  (104) 
x0451_0A

>  <ref_mols>  (104) 
x0451_0A,x0554_0A,x0556_0A,x0566_0A,x0310_0A,x0416_0A

>  <original SMILES>  (104) 
C=CC(=O)Nc1cc(-c2ccnn2C)ccc1C

>  <rationale>  (104) 
info info set:ROCS-electro;Warhead 5.31975894284694Å to Cys110:SG; hbond:S125; hydroph_interaction:V124; 

>  <∆∆G>  (104) 
-8.28904

>  <comRMSD>  (104) 
0.312337

>  <ROCS_TanimotoCombo>  (104) 
0.474

>  <ROCS_ShapeTanimoto>  (104) 
0.316

>  <ROCS_ColorTanimoto>  (104) 
0.158

>  <distance>  (104) 
5.319759

$$$$
Z445405276
     RDKit          3D

 27 27  0  0  0  0  0  0  0  0999 V2000
   10.5140    9.2920   22.6880 C   0  0  0  0  0  0  0  0  0  0  0  0
    9.5540   10.0130   23.5320 C   0  0  0  0  0  0  0  0  0  0  0  0
    8.5560    9.2800   24.1680 C   0  0  0  0  0  0  0  0  0  0  0  0
    7.6240    9.9260   24.9670 C   0  0  0  0  0  0  0  0  0  0  0  0
    7.6970   11.3040   25.1210 C   0  0  0  0  0  0  0  0  0  0  0  0
    6.4870   12.0850   26.1410 S   0  0  0  0  0  6  0  0  0  0  0  0
    6.3680   13.6510   25.4820 N   0  0  0  0  0  0  0  0  0  0  0  0
    5.2010   11.4730   25.9320 O   0  0  0  0  0  0  0  0  0  0  0  0
    6.9980   12.1630   27.4810 O   0  0  0  0  0  0  0  0  0  0  0  0
    8.7150   12.0500   24.4760 C   0  0  0  0  0  0  0  0  0  0  0  0
    9.6500   11.3990   23.6800 C   0  0  0  0  0  0  0  0  0  0  0  0
   10.7340   12.1630   22.9950 N   0  0  0  0  0  0  0  0  0  0  0  0
   10.9080   13.4940   23.3460 C   0  0  0  0  0  0  0  0  0  0  0  0
   10.3470   14.1150   24.2470 O   0  0  0  0  0  0  0  0  0  0  0  0
   11.9490   14.1760   22.4440 C   0  0  0  0  0  0  0  0  0  0  0  0
   11.3170   15.6710   21.7110 Cl  0  0  0  0  0  0  0  0  0  0  0  0
   11.1800    9.9890   22.2020 H   0  0  0  0  0  0  0  0  0  0  0  0
    9.9790    8.7580   21.9070 H   0  0  0  0  0  0  0  0  0  0  0  0
   11.0800    8.5850   23.2910 H   0  0  0  0  0  0  0  0  0  0  0  0
    8.4990    8.2010   24.0440 H   0  0  0  0  0  0  0  0  0  0  0  0
    6.8450    9.3530   25.4630 H   0  0  0  0  0  0  0  0  0  0  0  0
    5.8530   13.6740   24.5980 H   0  0  0  0  0  0  0  0  0  0  0  0
    7.2990   14.0480   25.3970 H   0  0  0  0  0  0  0  0  0  0  0  0
    8.6500   13.1250   24.6910 H   0  0  0  0  0  0  0  0  0  0  0  0
   10.9330   11.9390   22.0150 H   0  0  0  0  0  0  0  0  0  0  0  0
   12.1810   13.5010   21.6180 H   0  0  0  0  0  0  0  0  0  0  0  0
   12.8780   14.4280   22.9640 H   0  0  0  0  0  0  0  0  0  0  0  0
  1  2  1  0
  2  3  2  0
  3  4  1  0
  4  5  2  0
  5  6  1  0
  6  7  1  0
  6  8  2  0
  6  9  2  0
  5 10  1  0
 10 11  2  0
 11 12  1  0
 12 13  1  0
 13 14  2  0
 13 15  1  0
 15 16  1  0
 11  2  1  0
  1 17  1  0
  1 18  1  0
  1 19  1  0
  3 20  1  0
  4 21  1  0
  7 22  1  0
  7 23  1  0
 10 24  1  0
 12 25  1  0
 15 26  1  0
 15 27  1  0
A    1
 C1 
A    2
 C2 
A    3
 C3 
A    4
 C4 
A    5
 C5 
A    6
 S1 
A    7
 N1 
A    8
 O1 
A    9
 O2 
A   10
 C6 
A   11
 C7 
A   12
 N2 
A   13
 C8 
A   14
 O3 
A   15
 C9 
A   16
CL1 
A   17
 H1 
A   18
 H2 
A   19
 H3 
A   20
 H4 
A   21
 H5 
A   22
 H6 
A   23
 H7 
A   24
 H8 
A   25
 H9 
A   26
 H10
A   27
 H11
M  END
>  <ref_pdb>  (105) 
x0451_0A

>  <ref_mols>  (105) 
x0451_0A,x0554_0A,x0556_0A,x0566_0A,x0310_0A,x0416_0A

>  <original SMILES>  (105) 
Cc1ccc(S(N)(=O)=O)cc1NC(=O)CCl

>  <rationale>  (105) 
info info set:ROCS-electro;Warhead 4.486944980719064Å to Cys110:SG; hbond:S125+G127; hydroph_interaction:A110+V124; 

>  <∆∆G>  (105) 
-8.275282

>  <comRMSD>  (105) 
0.533371

>  <ROCS_TanimotoCombo>  (105) 
0.456

>  <ROCS_ShapeTanimoto>  (105) 
0.304

>  <ROCS_ColorTanimoto>  (105) 
0.152

>  <distance>  (105) 
4.486945

$$$$
EN300_27718535
     RDKit          3D

 35 36  0  0  0  0  0  0  0  0999 V2000
   11.8620   16.0850   21.7950 C   0  0  0  0  0  0  0  0  0  0  0  0
   11.5440   14.8760   21.0890 C   0  0  0  0  0  0  0  0  0  0  0  0
   12.4550   14.8220   19.8870 C   0  0  0  0  0  0  0  0  0  0  0  0
   10.3350   14.4930   20.5860 C   0  0  0  0  0  0  0  0  0  0  0  0
   12.0490   13.8610   21.9700 O   0  0  0  0  0  0  0  0  0  0  0  0
   11.3910   13.6640   23.1230 C   0  0  0  0  0  0  0  0  0  0  0  0
   11.4900   14.3380   24.1460 O   0  0  0  0  0  0  0  0  0  0  0  0
   10.6070   12.6030   22.9010 N   0  0  0  0  0  0  0  0  0  0  0  0
    9.5120   12.1630   23.6440 C   0  0  0  0  0  0  0  0  0  0  0  0
    8.5810   12.9940   24.2420 C   0  0  0  0  0  0  0  0  0  0  0  0
    7.4960   12.4820   24.9840 C   0  0  0  0  0  0  0  0  0  0  0  0
    6.5420   13.2430   25.5620 O   0  0  0  0  0  0  0  0  0  0  0  0
    7.3200   11.1940   25.1630 N   0  0  0  0  0  0  0  0  0  0  0  0
    8.2140   10.3960   24.5770 C   0  0  0  0  0  0  0  0  0  0  0  0
    7.9540    9.0140   24.7960 C   0  0  0  0  0  0  0  0  0  0  0  0
    8.7900    8.0400   24.2120 C   0  0  0  0  0  0  0  0  0  0  0  0
    9.9630    8.4730   23.3830 C   0  0  0  0  0  0  0  0  0  0  0  0
   10.1980    9.8100   23.2080 C   0  0  0  0  0  0  0  0  0  0  0  0
    9.3350   10.7850   23.7930 C   0  0  0  0  0  0  0  0  0  0  0  0
   11.3630   16.9340   21.3290 H   0  0  0  0  0  0  0  0  0  0  0  0
   11.5230   16.0120   22.8280 H   0  0  0  0  0  0  0  0  0  0  0  0
   12.9410   16.1970   21.7620 H   0  0  0  0  0  0  0  0  0  0  0  0
   12.6920   13.7960   19.5930 H   0  0  0  0  0  0  0  0  0  0  0  0
   12.0000   15.3020   19.0110 H   0  0  0  0  0  0  0  0  0  0  0  0
   13.3620   15.3730   20.1180 H   0  0  0  0  0  0  0  0  0  0  0  0
   10.4800   13.8230   19.7370 H   0  0  0  0  0  0  0  0  0  0  0  0
    9.7610   15.3620   20.2370 H   0  0  0  0  0  0  0  0  0  0  0  0
    9.7160   13.9830   21.3250 H   0  0  0  0  0  0  0  0  0  0  0  0
   10.8220   12.1660   22.0050 H   0  0  0  0  0  0  0  0  0  0  0  0
    8.6900   14.0770   24.1270 H   0  0  0  0  0  0  0  0  0  0  0  0
    5.8040   12.9390   24.9690 H   0  0  0  0  0  0  0  0  0  0  0  0
    7.1090    8.7320   25.4080 H   0  0  0  0  0  0  0  0  0  0  0  0
    8.6780    6.9520   24.3000 H   0  0  0  0  0  0  0  0  0  0  0  0
   10.5570    7.6610   22.9770 H   0  0  0  0  0  0  0  0  0  0  0  0
   11.0540   10.0910   22.6070 H   0  0  0  0  0  0  0  0  0  0  0  0
  1  2  1  0
  2  3  1  0
  2  4  1  0
  2  5  1  0
  5  6  1  0
  6  7  2  0
  6  8  1  0
  8  9  1  0
  9 10  2  0
 10 11  1  0
 11 12  1  0
 11 13  2  0
 13 14  1  0
 14 15  2  0
 15 16  1  0
 16 17  2  0
 17 18  1  0
 18 19  2  0
 19  9  1  0
 19 14  1  0
  1 20  1  0
  1 21  1  0
  1 22  1  0
  3 23  1  0
  3 24  1  0
  3 25  1  0
  4 26  1  0
  4 27  1  0
  4 28  1  0
  8 29  1  0
 10 30  1  0
 12 31  1  0
 15 32  1  0
 16 33  1  0
 17 34  1  0
 18 35  1  0
A    1
 C1 
A    2
 C2 
A    3
 C3 
A    4
 C4 
A    5
 O1 
A    6
 C5 
A    7
 O2 
A    8
 N1 
A    9
 C6 
A   10
 C7 
A   11
 C8 
A   12
 O3 
A   13
 N2 
A   14
 C9 
A   15
 C10
A   16
 C11
A   17
 C12
A   18
 C13
A   19
 C14
A   20
 H1 
A   21
 H2 
A   22
 H3 
A   23
 H4 
A   24
 H5 
A   25
 H6 
A   26
 H7 
A   27
 H8 
A   28
 H9 
A   29
 H10
A   30
 H11
A   31
 H12
A   32
 H13
A   33
 H14
A   34
 H15
A   35
 H16
M  END
>  <ref_pdb>  (106) 
x0451_0A

>  <ref_mols>  (106) 
x0451_0A,x0554_0A,x0556_0A,x0566_0A,x0310_0A,x0416_0A

>  <original SMILES>  (106) 
CC(C)(C)OC(=O)Nc1cc(O)nc2ccccc12

>  <rationale>  (106) 
info info set:ROCS-BB-1RB;Warhead nanÅ to Cys110:SG; hbond:S125; hydroph_interaction:Y89+Y90+V124+D109; 

>  <∆∆G>  (106) 
-8.272577

>  <comRMSD>  (106) 
0.499242

>  <ROCS_TanimotoCombo>  (106) 
0.527

>  <ROCS_ShapeTanimoto>  (106) 
0.357

>  <ROCS_ColorTanimoto>  (106) 
0.17

>  <distance>  (106) 
nan

$$$$
Z56949554
     RDKit          3D

 25 25  0  0  0  0  0  0  0  0999 V2000
   10.3490    9.2580   22.8630 C   0  0  0  0  0  0  0  0  0  0  0  0
    9.4440   10.1600   23.6670 C   0  0  0  0  0  0  0  0  0  0  0  0
    8.3540    9.4110   24.4200 C   0  0  0  0  0  0  0  0  0  0  0  0
    7.3450   10.1960   25.2810 C   0  0  0  0  0  0  0  0  0  0  0  0
    7.5180   11.7140   25.3160 C   0  0  0  0  0  0  0  0  0  0  0  0
    6.5060   12.4660   26.1730 C   0  0  0  0  0  0  0  0  0  0  0  0
    6.0790   13.5860   25.9460 O   0  0  0  0  0  0  0  0  0  0  0  0
    6.1110   11.7690   27.2480 O   0  0  0  0  0  0  0  0  0  0  0  0
    8.5390   12.3530   24.6070 C   0  0  0  0  0  0  0  0  0  0  0  0
    9.5540   11.5710   23.7460 C   0  0  0  0  0  0  0  0  0  0  0  0
   10.5850   12.2390   23.0420 N   0  0  0  0  0  0  0  0  0  0  0  0
   11.0440   13.5220   23.2620 C   0  0  0  0  0  0  0  0  0  0  0  0
   10.7330   14.2400   24.2100 O   0  0  0  0  0  0  0  0  0  0  0  0
   11.9970   14.0500   22.2400 C   0  0  0  0  0  0  0  0  0  0  0  0
   11.2450   15.2920   21.2080 Cl  0  0  0  0  0  0  0  0  0  0  0  0
    9.7420    8.5830   22.2550 H   0  0  0  0  0  0  0  0  0  0  0  0
   10.9800    8.6470   23.5110 H   0  0  0  0  0  0  0  0  0  0  0  0
   10.9850    9.8360   22.1940 H   0  0  0  0  0  0  0  0  0  0  0  0
    8.2930    8.3290   24.3470 H   0  0  0  0  0  0  0  0  0  0  0  0
    6.5530    9.6970   25.8320 H   0  0  0  0  0  0  0  0  0  0  0  0
    5.1710   11.5720   27.0710 H   0  0  0  0  0  0  0  0  0  0  0  0
    8.6000   13.4360   24.6810 H   0  0  0  0  0  0  0  0  0  0  0  0
   10.8140   11.8870   22.1050 H   0  0  0  0  0  0  0  0  0  0  0  0
   12.8080   14.5410   22.7800 H   0  0  0  0  0  0  0  0  0  0  0  0
   12.4290   13.3220   21.5660 H   0  0  0  0  0  0  0  0  0  0  0  0
  1  2  1  0
  2  3  2  0
  3  4  1  0
  4  5  2  0
  5  6  1  0
  6  7  2  0
  6  8  1  0
  5  9  1  0
  9 10  2  0
 10 11  1  0
 11 12  1  0
 12 13  2  0
 12 14  1  0
 14 15  1  0
 10  2  1  0
  1 16  1  0
  1 17  1  0
  1 18  1  0
  3 19  1  0
  4 20  1  0
  8 21  1  0
  9 22  1  0
 11 23  1  0
 14 24  1  0
 14 25  1  0
A    1
 C1 
A    2
 C2 
A    3
 C3 
A    4
 C4 
A    5
 C5 
A    6
 C6 
A    7
 O1 
A    8
 O2 
A    9
 C7 
A   10
 C8 
A   11
 N1 
A   12
 C9 
A   13
 O3 
A   14
 C10
A   15
CL1 
A   16
 H1 
A   17
 H2 
A   18
 H3 
A   19
 H4 
A   20
 H5 
A   21
 H6 
A   22
 H7 
A   23
 H8 
A   24
 H9 
A   25
 H10
M  END
>  <ref_pdb>  (107) 
x0451_0A

>  <ref_mols>  (107) 
x0451_0A,x0554_0A,x0556_0A,x0566_0A,x0310_0A,x0416_0A

>  <original SMILES>  (107) 
Cc1ccc(C(=O)O)cc1NC(=O)CCl

>  <rationale>  (107) 
info info set:ROCS-electro;Warhead 4.242604909722328Å to Cys110:SG; hbond:S125; hydroph_interaction:A110+V124; 

>  <∆∆G>  (107) 
-8.271616

>  <comRMSD>  (107) 
0.33221

>  <ROCS_TanimotoCombo>  (107) 
0.439

>  <ROCS_ShapeTanimoto>  (107) 
0.308

>  <ROCS_ColorTanimoto>  (107) 
0.131

>  <distance>  (107) 
4.242605

$$$$
Z56862408
     RDKit          3D

 22 22  0  0  0  0  0  0  0  0999 V2000
   10.3720    9.2350   22.7600 C   0  0  0  0  0  0  0  0  0  0  0  0
    9.4900   10.1220   23.6170 C   0  0  0  0  0  0  0  0  0  0  0  0
    8.4290    9.3210   24.3450 C   0  0  0  0  0  0  0  0  0  0  0  0
    7.4820   10.1040   25.2360 C   0  0  0  0  0  0  0  0  0  0  0  0
    7.6840   11.6140   25.3150 C   0  0  0  0  0  0  0  0  0  0  0  0
    6.6400   12.5510   26.3100 Cl  0  0  0  0  0  0  0  0  0  0  0  0
    8.7200   12.2240   24.5780 C   0  0  0  0  0  0  0  0  0  0  0  0
    9.6050   11.5110   23.7510 C   0  0  0  0  0  0  0  0  0  0  0  0
   10.6320   12.1670   23.0400 N   0  0  0  0  0  0  0  0  0  0  0  0
   10.9780   13.5540   23.3380 C   0  0  0  0  0  0  0  0  0  0  0  0
   10.5380   14.2500   24.2510 O   0  0  0  0  0  0  0  0  0  0  0  0
   11.9600   14.1010   22.4260 C   0  0  0  0  0  0  0  0  0  0  0  0
   11.4200   15.5870   21.6050 Cl  0  0  0  0  0  0  0  0  0  0  0  0
    9.7530    8.6230   22.1010 H   0  0  0  0  0  0  0  0  0  0  0  0
   10.9780    8.5630   23.3670 H   0  0  0  0  0  0  0  0  0  0  0  0
   11.0300    9.8330   22.1360 H   0  0  0  0  0  0  0  0  0  0  0  0
    8.3510    8.2380   24.2360 H   0  0  0  0  0  0  0  0  0  0  0  0
    6.6880    9.6170   25.7980 H   0  0  0  0  0  0  0  0  0  0  0  0
    8.8320   13.3010   24.6610 H   0  0  0  0  0  0  0  0  0  0  0  0
   10.8220   11.8740   22.0740 H   0  0  0  0  0  0  0  0  0  0  0  0
   12.8690   14.3360   22.9890 H   0  0  0  0  0  0  0  0  0  0  0  0
   12.2390   13.3790   21.6540 H   0  0  0  0  0  0  0  0  0  0  0  0
  1  2  1  0
  2  3  2  0
  3  4  1  0
  4  5  2  0
  5  6  1  0
  5  7  1  0
  7  8  2  0
  8  9  1  0
  9 10  1  0
 10 11  2  0
 10 12  1  0
 12 13  1  0
  8  2  1  0
  1 14  1  0
  1 15  1  0
  1 16  1  0
  3 17  1  0
  4 18  1  0
  7 19  1  0
  9 20  1  0
 12 21  1  0
 12 22  1  0
A    1
 C1 
A    2
 C2 
A    3
 C3 
A    4
 C4 
A    5
 C5 
A    6
CL1 
A    7
 C6 
A    8
 C7 
A    9
 N1 
A   10
 C8 
A   11
 O1 
A   12
 C9 
A   13
CL2 
A   14
 H1 
A   15
 H2 
A   16
 H3 
A   17
 H4 
A   18
 H5 
A   19
 H6 
A   20
 H7 
A   21
 H8 
A   22
 H9 
M  END
>  <ref_pdb>  (108) 
x0451_0A

>  <ref_mols>  (108) 
x0451_0A,x0554_0A,x0556_0A,x0566_0A,x0310_0A,x0416_0A

>  <original SMILES>  (108) 
Cc1ccc(Cl)cc1NC(=O)CCl

>  <rationale>  (108) 
info info set:ROCS-electro;Warhead 4.346917364063871Å to Cys110:SG; hbond:S125; hydroph_interaction:A110+V124; 

>  <∆∆G>  (108) 
-8.267214

>  <comRMSD>  (108) 
0.357109

>  <ROCS_TanimotoCombo>  (108) 
0.421

>  <ROCS_ShapeTanimoto>  (108) 
0.281

>  <ROCS_ColorTanimoto>  (108) 
0.14

>  <distance>  (108) 
4.346917

$$$$
Z992338700
     RDKit          3D

 34 35  0  0  0  0  0  0  0  0999 V2000
    9.7780    8.6610   22.8980 C   0  0  0  0  0  0  0  0  0  0  0  0
    9.3070    9.8660   23.6340 C   0  0  0  0  0  0  0  0  0  0  0  0
    8.1300    9.8480   24.3700 C   0  0  0  0  0  0  0  0  0  0  0  0
    7.6650   10.9650   25.0610 C   0  0  0  0  0  0  0  0  0  0  0  0
    8.4040   12.1360   25.0200 C   0  0  0  0  0  0  0  0  0  0  0  0
    7.9590   13.2140   25.6840 F   0  0  0  0  0  0  0  0  0  0  0  0
    9.5890   12.1550   24.2900 C   0  0  0  0  0  0  0  0  0  0  0  0
   10.3770   13.4620   24.2870 C   0  0  0  0  0  0  0  0  0  0  0  0
   11.0310   13.6870   25.3030 O   0  0  0  0  0  0  0  0  0  0  0  0
   10.3460   14.3120   23.1780 N   0  0  0  0  0  0  0  0  0  0  0  0
    9.0910   14.9010   22.7840 C   0  0  0  0  0  0  0  0  0  0  0  0
    9.0890   15.0130   21.2760 C   0  0  0  0  0  0  0  0  0  0  0  0
   10.2940   15.7140   20.6780 C   0  0  0  0  0  0  0  0  0  0  0  0
   10.1230   17.1620   20.7470 N   0  0  0  0  0  0  0  0  0  0  0  0
   11.5890   15.2060   21.3250 C   0  0  0  0  0  0  0  0  0  0  0  0
   11.4900   15.0760   22.7070 C   0  0  0  0  0  0  0  0  0  0  0  0
   10.0520   11.0400   23.5940 C   0  0  0  0  0  0  0  0  0  0  0  0
   10.0510    8.9320   21.8770 H   0  0  0  0  0  0  0  0  0  0  0  0
    8.9900    7.9010   22.8410 H   0  0  0  0  0  0  0  0  0  0  0  0
   10.6560    8.2390   23.3910 H   0  0  0  0  0  0  0  0  0  0  0  0
    7.5570    8.9590   24.4120 H   0  0  0  0  0  0  0  0  0  0  0  0
    6.7340   10.8820   25.6120 H   0  0  0  0  0  0  0  0  0  0  0  0
    8.2850   14.2410   23.1330 H   0  0  0  0  0  0  0  0  0  0  0  0
    8.9420   15.8840   23.2380 H   0  0  0  0  0  0  0  0  0  0  0  0
    9.1340   14.0100   20.9170 H   0  0  0  0  0  0  0  0  0  0  0  0
    8.1550   15.4680   20.9260 H   0  0  0  0  0  0  0  0  0  0  0  0
   10.3340   15.4540   19.6120 H   0  0  0  0  0  0  0  0  0  0  0  0
    9.1390   17.4030   20.6250 H   0  0  0  0  0  0  0  0  0  0  0  0
   10.4060   17.5390   21.6510 H   0  0  0  0  0  0  0  0  0  0  0  0
   11.8570   14.2290   20.9000 H   0  0  0  0  0  0  0  0  0  0  0  0
   12.4270   15.8740   21.0990 H   0  0  0  0  0  0  0  0  0  0  0  0
   11.3850   16.0680   23.1540 H   0  0  0  0  0  0  0  0  0  0  0  0
   12.4160   14.6210   23.0700 H   0  0  0  0  0  0  0  0  0  0  0  0
   10.9830   11.0940   23.0310 H   0  0  0  0  0  0  0  0  0  0  0  0
  1  2  1  0
  2  3  2  0
  3  4  1  0
  4  5  2  0
  5  6  1  0
  5  7  1  0
  7  8  1  0
  8  9  2  0
  8 10  1  0
 10 11  1  0
 11 12  1  0
 12 13  1  0
 13 14  1  0
 13 15  1  0
 15 16  1  0
  7 17  2  0
 17  2  1  0
 16 10  1  0
  1 18  1  0
  1 19  1  0
  1 20  1  0
  3 21  1  0
  4 22  1  0
 11 23  1  0
 11 24  1  0
 12 25  1  0
 12 26  1  0
 13 27  1  0
 14 28  1  0
 14 29  1  0
 15 30  1  0
 15 31  1  0
 16 32  1  0
 16 33  1  0
 17 34  1  0
A    1
 C1 
A    2
 C2 
A    3
 C3 
A    4
 C4 
A    5
 C5 
A    6
 F1 
A    7
 C6 
A    8
 C7 
A    9
 O1 
A   10
 N1 
A   11
 C8 
A   12
 C9 
A   13
 C10
A   14
 N2 
A   15
 C11
A   16
 C12
A   17
 C13
A   18
 H1 
A   19
 H2 
A   20
 H3 
A   21
 H4 
A   22
 H5 
A   23
 H6 
A   24
 H7 
A   25
 H8 
A   26
 H9 
A   27
 H10
A   28
 H11
A   29
 H12
A   30
 H13
A   31
 H14
A   32
 H15
A   33
 H16
A   34
 H17
M  END
>  <ref_pdb>  (109) 
x0451_0A

>  <ref_mols>  (109) 
x0451_0A,x0554_0A,x0556_0A,x0566_0A,x0310_0A,x0416_0A

>  <original SMILES>  (109) 
Cc1ccc(F)c(C(=O)N2CCC(N)CC2)c1

>  <rationale>  (109) 
info info set:ROCS-shape_Q1;Warhead nanÅ to Cys110:SG; hbond:S87; hydroph_interaction:V124; 

>  <∆∆G>  (109) 
-8.263712

>  <comRMSD>  (109) 
0.415044

>  <ROCS_TanimotoCombo>  (109) 
0.4

>  <ROCS_ShapeTanimoto>  (109) 
0.276

>  <ROCS_ColorTanimoto>  (109) 
0.124

>  <distance>  (109) 
nan

$$$$
Z1562146800
     RDKit          3D

 31 32  0  0  0  0  0  0  0  0999 V2000
    4.6790   15.2960   27.0500 C   0  0  0  0  0  0  0  0  0  0  0  0
    5.3630   13.9510   26.7810 C   0  0  0  0  0  0  0  0  0  0  0  0
    6.2830   13.6900   25.8930 N   0  0  0  0  0  0  0  0  0  0  0  0
    6.5480   12.3220   26.0760 C   0  0  0  0  0  0  0  0  0  0  0  0
    7.5640   11.5710   25.2400 C   0  0  0  0  0  0  0  0  0  0  0  0
    7.3760   10.0690   25.2320 C   0  0  0  0  0  0  0  0  0  0  0  0
    8.3890    9.2590   24.3780 C   0  0  0  0  0  0  0  0  0  0  0  0
    9.4360   10.1190   23.6670 C   0  0  0  0  0  0  0  0  0  0  0  0
   10.3270    9.1910   22.8830 C   0  0  0  0  0  0  0  0  0  0  0  0
    9.5160   11.5200   23.7550 C   0  0  0  0  0  0  0  0  0  0  0  0
   10.5490   12.1720   23.0490 N   0  0  0  0  0  0  0  0  0  0  0  0
   11.0510   13.4090   23.3600 C   0  0  0  0  0  0  0  0  0  0  0  0
   10.5960   14.2050   24.1720 O   0  0  0  0  0  0  0  0  0  0  0  0
   12.2850   13.8240   22.6400 C   0  0  0  0  0  0  0  0  0  0  0  0
   12.1270   15.3510   21.7650 Cl  0  0  0  0  0  0  0  0  0  0  0  0
    8.5850   12.2200   24.5320 C   0  0  0  0  0  0  0  0  0  0  0  0
    5.8090   11.7680   27.0510 N   0  0  0  0  0  0  0  0  0  0  0  0
    5.0780   12.8110   27.4760 N   0  0  0  0  0  0  0  0  0  0  0  0
    4.6590   15.5320   28.1150 H   0  0  0  0  0  0  0  0  0  0  0  0
    3.6350   15.2890   26.7160 H   0  0  0  0  0  0  0  0  0  0  0  0
    5.1950   16.1110   26.5310 H   0  0  0  0  0  0  0  0  0  0  0  0
    6.5770    9.5770   25.7870 H   0  0  0  0  0  0  0  0  0  0  0  0
    8.3490    8.1750   24.3020 H   0  0  0  0  0  0  0  0  0  0  0  0
    9.7160    8.4650   22.3410 H   0  0  0  0  0  0  0  0  0  0  0  0
   10.9920    8.6300   23.5390 H   0  0  0  0  0  0  0  0  0  0  0  0
   10.9420    9.7500   22.1810 H   0  0  0  0  0  0  0  0  0  0  0  0
   10.7650   11.8520   22.0980 H   0  0  0  0  0  0  0  0  0  0  0  0
   12.5470   13.0450   21.9160 H   0  0  0  0  0  0  0  0  0  0  0  0
   13.0930   13.9380   23.3660 H   0  0  0  0  0  0  0  0  0  0  0  0
    8.6290   13.3110   24.6100 H   0  0  0  0  0  0  0  0  0  0  0  0
    4.4170   12.6740   28.2290 H   0  0  0  0  0  0  0  0  0  0  0  0
  1  2  1  0
  2  3  2  0
  3  4  1  0
  4  5  1  0
  5  6  2  0
  6  7  1  0
  7  8  2  0
  8  9  1  0
  8 10  1  0
 10 11  1  0
 11 12  1  0
 12 13  2  0
 12 14  1  0
 14 15  1  0
 10 16  2  0
  4 17  2  0
 17 18  1  0
 18  2  1  0
 16  5  1  0
  1 19  1  0
  1 20  1  0
  1 21  1  0
  6 22  1  0
  7 23  1  0
  9 24  1  0
  9 25  1  0
  9 26  1  0
 11 27  1  0
 14 28  1  0
 14 29  1  0
 16 30  1  0
 18 31  1  0
A    1
 C1 
A    2
 C2 
A    3
 N1 
A    4
 C3 
A    5
 C4 
A    6
 C5 
A    7
 C6 
A    8
 C7 
A    9
 C8 
A   10
 C9 
A   11
 N2 
A   12
 C10
A   13
 O1 
A   14
 C11
A   15
CL1 
A   16
 C12
A   17
 N3 
A   18
 N4 
A   19
 H1 
A   20
 H2 
A   21
 H3 
A   22
 H4 
A   23
 H5 
A   24
 H6 
A   25
 H7 
A   26
 H8 
A   27
 H9 
A   28
 H10
A   29
 H11
A   30
 H12
A   31
 H13
M  END
>  <ref_pdb>  (110) 
x0451_0A

>  <ref_mols>  (110) 
x0451_0A,x0554_0A,x0556_0A,x0566_0A,x0310_0A,x0416_0A

>  <original SMILES>  (110) 
Cc1nc(-c2ccc(C)c(NC(=O)CCl)c2)n[nH]1

>  <rationale>  (110) 
info info set:ROCS-electro;Warhead 4.3032104863694505Å to Cys110:SG; hbond:S125; hydroph_interaction:V124; 

>  <∆∆G>  (110) 
-8.248279

>  <comRMSD>  (110) 
0.51964

>  <ROCS_TanimotoCombo>  (110) 
0.449

>  <ROCS_ShapeTanimoto>  (110) 
0.321

>  <ROCS_ColorTanimoto>  (110) 
0.128

>  <distance>  (110) 
4.30321

$$$$
EN300_39917904
     RDKit          3D

 43 44  0  0  0  0  0  0  0  0999 V2000
   11.5270   14.3800   20.5260 C   0  0  0  0  0  0  0  0  0  0  0  0
   11.4550   14.3440   22.0110 C   0  0  0  0  0  0  0  0  0  0  0  0
   11.0830   15.7560   22.4520 C   0  0  0  0  0  0  0  0  0  0  0  0
   12.4970   13.9930   22.8270 C   0  0  0  0  0  0  0  0  0  0  0  0
   10.4400   13.4160   22.4930 O   0  0  0  0  0  0  0  0  0  0  0  0
   10.2790   13.2420   23.8440 C   0  0  0  0  0  0  0  0  0  0  0  0
   10.5340   14.1380   24.6310 O   0  0  0  0  0  0  0  0  0  0  0  0
    9.7930   11.9850   24.2660 N   0  0  0  0  0  0  0  0  0  0  0  0
    8.5630   11.8420   24.9430 C   0  0  0  0  0  0  0  0  0  0  0  0
    7.8000   13.0810   25.4270 C   0  0  0  0  0  0  0  0  0  0  0  0
    6.4930   12.8590   26.1570 C   0  0  0  0  0  0  0  0  0  0  0  0
    6.0130   11.4410   26.3720 C   0  0  0  0  0  0  0  0  0  0  0  0
    4.7050   11.2410   27.1130 C   0  0  0  0  0  0  0  0  0  0  0  0
    3.9970   12.1270   27.5440 O   0  0  0  0  0  0  0  0  0  0  0  0
    4.3870    9.9440   27.2520 O   0  0  0  0  0  0  0  0  0  0  0  0
    6.7230   10.3550   25.9190 C   0  0  0  0  0  0  0  0  0  0  0  0
    8.0280   10.5590   25.1830 C   0  0  0  0  0  0  0  0  0  0  0  0
    8.6450    9.3910   24.7710 N   0  0  0  0  0  0  0  0  0  0  0  0
    9.8360    9.3980   24.1650 C   0  0  0  0  0  0  0  0  0  0  0  0
   10.3100    8.3830   23.6730 O   0  0  0  0  0  0  0  0  0  0  0  0
   10.5460   10.7290   24.0470 C   0  0  0  0  0  0  0  0  0  0  0  0
   10.5370   10.5720   22.6430 C   0  0  0  0  0  0  0  0  0  0  0  0
   11.9970   10.7480   24.5170 C   0  0  0  0  0  0  0  0  0  0  0  0
   11.6630   15.4070   20.1740 H   0  0  0  0  0  0  0  0  0  0  0  0
   12.3710   13.7910   20.1630 H   0  0  0  0  0  0  0  0  0  0  0  0
   10.6080   13.9960   20.0730 H   0  0  0  0  0  0  0  0  0  0  0  0
   11.7810   16.4790   22.0550 H   0  0  0  0  0  0  0  0  0  0  0  0
   10.0780   16.0170   22.1020 H   0  0  0  0  0  0  0  0  0  0  0  0
   11.0920   15.8510   23.5430 H   0  0  0  0  0  0  0  0  0  0  0  0
   13.3300   14.6620   22.6650 H   0  0  0  0  0  0  0  0  0  0  0  0
   12.8120   12.9630   22.6350 H   0  0  0  0  0  0  0  0  0  0  0  0
   12.2250   14.0420   23.8850 H   0  0  0  0  0  0  0  0  0  0  0  0
    8.1880   14.0920   25.2520 H   0  0  0  0  0  0  0  0  0  0  0  0
    5.9210   13.7130   26.5170 H   0  0  0  0  0  0  0  0  0  0  0  0
    4.8320    9.6610   28.0850 H   0  0  0  0  0  0  0  0  0  0  0  0
    6.3320    9.3600   26.0980 H   0  0  0  0  0  0  0  0  0  0  0  0
    8.0470    8.6230   24.5030 H   0  0  0  0  0  0  0  0  0  0  0  0
   10.7160   11.5540   22.2660 H   0  0  0  0  0  0  0  0  0  0  0  0
   11.2620    9.8770   22.2540 H   0  0  0  0  0  0  0  0  0  0  0  0
    9.5670   10.1960   22.3630 H   0  0  0  0  0  0  0  0  0  0  0  0
   12.6420   11.2470   23.7910 H   0  0  0  0  0  0  0  0  0  0  0  0
   12.1030   11.3090   25.4480 H   0  0  0  0  0  0  0  0  0  0  0  0
   12.3850    9.7450   24.6890 H   0  0  0  0  0  0  0  0  0  0  0  0
  1  2  1  0
  2  3  1  0
  2  4  1  0
  2  5  1  0
  5  6  1  0
  6  7  2  0
  6  8  1  0
  8  9  1  0
  9 10  2  0
 10 11  1  0
 11 12  2  0
 12 13  1  0
 13 14  2  0
 13 15  1  0
 12 16  1  0
 16 17  2  0
 17 18  1  0
 18 19  1  0
 19 20  2  0
 19 21  1  0
 21 22  1  0
 21 23  1  0
 21  8  1  0
 17  9  1  0
  1 24  1  0
  1 25  1  0
  1 26  1  0
  3 27  1  0
  3 28  1  0
  3 29  1  0
  4 30  1  0
  4 31  1  0
  4 32  1  0
 10 33  1  0
 11 34  1  0
 15 35  1  0
 16 36  1  0
 18 37  1  0
 22 38  1  0
 22 39  1  0
 22 40  1  0
 23 41  1  0
 23 42  1  0
 23 43  1  0
A    1
 C1 
A    2
 C2 
A    3
 C3 
A    4
 C4 
A    5
 O1 
A    6
 C5 
A    7
 O2 
A    8
 N1 
A    9
 C6 
A   10
 C7 
A   11
 C8 
A   12
 C9 
A   13
 C10
A   14
 O3 
A   15
 O4 
A   16
 C11
A   17
 C12
A   18
 N2 
A   19
 C13
A   20
 O5 
A   21
 C14
A   22
 C15
A   23
 C16
A   24
 H1 
A   25
 H2 
A   26
 H3 
A   27
 H4 
A   28
 H5 
A   29
 H6 
A   30
 H7 
A   31
 H8 
A   32
 H9 
A   33
 H10
A   34
 H11
A   35
 H12
A   36
 H13
A   37
 H14
A   38
 H15
A   39
 H16
A   40
 H17
A   41
 H18
A   42
 H19
A   43
 H20
M  END
>  <ref_pdb>  (111) 
x0451_0A

>  <ref_mols>  (111) 
x0451_0A,x0554_0A,x0556_0A,x0566_0A,x0310_0A,x0416_0A

>  <original SMILES>  (111) 
CC(C)(C)OC(=O)N1c2ccc(C(=O)O)cc2NC(=O)C1(C)C

>  <rationale>  (111) 
info info set:ROCS-BB-1RB;Warhead nanÅ to Cys110:SG; hbond:S105+D109+A110; 

>  <∆∆G>  (111) 
-8.224963

>  <comRMSD>  (111) 
0.789713

>  <ROCS_TanimotoCombo>  (111) 
0.54

>  <ROCS_ShapeTanimoto>  (111) 
0.383

>  <ROCS_ColorTanimoto>  (111) 
0.157

>  <distance>  (111) 
nan

$$$$
EN300_631694
     RDKit          3D

 38 39  0  0  0  0  0  0  0  0999 V2000
    9.8730   15.5340   21.1880 C   0  0  0  0  0  0  0  0  0  0  0  0
   11.1270   14.7240   21.3480 C   0  0  0  0  0  0  0  0  0  0  0  0
   12.1230   15.2950   22.1090 C   0  0  0  0  0  0  0  0  0  0  0  0
   11.6770   14.4700   19.9370 C   0  0  0  0  0  0  0  0  0  0  0  0
   10.6610   13.5150   22.0030 O   0  0  0  0  0  0  0  0  0  0  0  0
   10.4160   13.4630   23.3440 C   0  0  0  0  0  0  0  0  0  0  0  0
   10.5670   14.5590   24.2390 O   0  0  0  0  0  0  0  0  0  0  0  0
   10.0170   12.1920   23.6460 N   0  0  0  0  0  0  0  0  0  0  0  0
   10.8020   11.1100   23.4110 C   0  0  0  0  0  0  0  0  0  0  0  0
   10.2760    9.8540   23.1790 C   0  0  0  0  0  0  0  0  0  0  0  0
    9.2450    9.4880   24.2080 C   0  0  2  0  0  0  0  0  0  0  0  0
    8.4600    8.4480   23.9290 N   0  0  0  0  0  0  0  0  0  0  0  0
    8.4790   10.5470   24.7820 C   0  0  0  0  0  0  0  0  0  0  0  0
    7.3130   10.2820   25.6660 C   0  0  0  0  0  0  0  0  0  0  0  0
    6.5060   11.4230   26.2900 C   0  0  0  0  0  0  0  0  0  0  0  0
    5.0340   11.1100   27.4290 Br  0  0  0  0  0  0  0  0  0  0  0  0
    6.9270   12.7270   25.9700 C   0  0  0  0  0  0  0  0  0  0  0  0
    8.1170   13.0700   25.0650 C   0  0  0  0  0  0  0  0  0  0  0  0
    8.8730   11.8650   24.4930 C   0  0  0  0  0  0  0  0  0  0  0  0
    9.3590   15.2550   20.2630 H   0  0  0  0  0  0  0  0  0  0  0  0
   10.0950   16.6050   21.1850 H   0  0  0  0  0  0  0  0  0  0  0  0
    9.1810   15.3630   22.0210 H   0  0  0  0  0  0  0  0  0  0  0  0
   12.5920   14.6760   22.8720 H   0  0  0  0  0  0  0  0  0  0  0  0
   11.6950   16.1630   22.6240 H   0  0  0  0  0  0  0  0  0  0  0  0
   12.9280   15.7080   21.4940 H   0  0  0  0  0  0  0  0  0  0  0  0
   12.4550   13.7100   19.9370 H   0  0  0  0  0  0  0  0  0  0  0  0
   12.1320   15.3620   19.5020 H   0  0  0  0  0  0  0  0  0  0  0  0
   10.8800   14.1430   19.2630 H   0  0  0  0  0  0  0  0  0  0  0  0
   11.4440   11.0380   24.2960 H   0  0  0  0  0  0  0  0  0  0  0  0
   11.4990   11.3730   22.6130 H   0  0  0  0  0  0  0  0  0  0  0  0
   11.0100    9.0770   22.9910 H   0  0  0  0  0  0  0  0  0  0  0  0
    9.7800    9.9190   22.2220 H   0  0  0  0  0  0  0  0  0  0  0  0
    9.8390    9.1390   25.0340 H   0  0  0  0  0  0  0  0  0  0  0  0
    7.4990    8.7540   24.0290 H   0  0  0  0  0  0  0  0  0  0  0  0
    8.5920    7.7280   24.6420 H   0  0  0  0  0  0  0  0  0  0  0  0
    6.9970    9.2670   25.9040 H   0  0  0  0  0  0  0  0  0  0  0  0
    6.3130   13.5000   26.4400 H   0  0  0  0  0  0  0  0  0  0  0  0
    8.3850   14.1140   24.8640 H   0  0  0  0  0  0  0  0  0  0  0  0
  1  2  1  0
  2  3  1  0
  2  4  1  0
  2  5  1  0
  5  6  1  0
  6  7  2  0
  6  8  1  0
  8  9  1  0
  9 10  1  0
 10 11  1  0
 11 12  1  0
 11 13  1  0
 13 14  2  0
 14 15  1  0
 15 16  1  0
 15 17  2  0
 17 18  1  0
 18 19  2  0
 19  8  1  0
 19 13  1  0
  1 20  1  0
  1 21  1  0
  1 22  1  0
  3 23  1  0
  3 24  1  0
  3 25  1  0
  4 26  1  0
  4 27  1  0
  4 28  1  0
  9 29  1  0
  9 30  1  0
 10 31  1  0
 10 32  1  0
 11 33  1  1
 12 34  1  0
 12 35  1  0
 14 36  1  0
 17 37  1  0
 18 38  1  0
A    1
 C1 
A    2
 C2 
A    3
 C3 
A    4
 C4 
A    5
 O1 
A    6
 C5 
A    7
 O2 
A    8
 N1 
A    9
 C6 
A   10
 C7 
A   11
 C8 
A   12
 N2 
A   13
 C9 
A   14
 C10
A   15
 C11
A   16
BR1 
A   17
 C12
A   18
 C13
A   19
 C14
A   20
 H1 
A   21
 H2 
A   22
 H3 
A   23
 H4 
A   24
 H5 
A   25
 H6 
A   26
 H7 
A   27
 H8 
A   28
 H9 
A   29
 H10
A   30
 H11
A   31
 H12
A   32
 H13
A   33
 H14
A   34
 H15
A   35
 H16
A   36
 H17
A   37
 H18
A   38
 H19
M  END
>  <ref_pdb>  (112) 
x0451_0A

>  <ref_mols>  (112) 
x0451_0A,x0554_0A,x0556_0A,x0566_0A,x0310_0A,x0416_0A

>  <original SMILES>  (112) 
CC(C)(C)OC(=O)N1CC[C@H](N)c2cc(Br)ccc21

>  <rationale>  (112) 
info info set:ROCS-BB-0RB;Warhead nanÅ to Cys110:SG; hbond:T126; hydroph_interaction:Y89; 

>  <∆∆G>  (112) 
-8.221807

>  <comRMSD>  (112) 
0.523452

>  <ROCS_TanimotoCombo>  (112) 
0.52

>  <ROCS_ShapeTanimoto>  (112) 
0.357

>  <ROCS_ColorTanimoto>  (112) 
0.163

>  <distance>  (112) 
nan

$$$$
Z56907596
     RDKit          3D

 25 25  0  0  0  0  0  0  0  0999 V2000
    8.6580    7.4790   22.9280 C   0  0  0  0  0  0  0  0  0  0  0  0
    8.4590    8.2230   24.1260 O   0  0  0  0  0  0  0  0  0  0  0  0
    8.9300    9.5540   24.0200 C   0  0  0  0  0  0  0  0  0  0  0  0
    8.1500   10.7030   24.6810 C   0  0  0  0  0  0  0  0  0  0  0  0
    8.6550   12.0890   24.5540 C   0  0  0  0  0  0  0  0  0  0  0  0
    9.9500   12.2130   23.7470 C   0  0  0  0  0  0  0  0  0  0  0  0
   10.4480   13.4930   23.6000 C   0  0  0  0  0  0  0  0  0  0  0  0
   10.3550   14.2770   24.5340 O   0  0  0  0  0  0  0  0  0  0  0  0
   11.0190   13.7430   22.3650 N   0  0  0  0  0  0  0  0  0  0  0  0
   11.5080   14.9640   21.9400 C   0  0  0  0  0  0  0  0  0  0  0  0
   11.4070   16.0170   22.5650 O   0  0  0  0  0  0  0  0  0  0  0  0
   12.2100   14.9610   20.5890 C   0  0  0  0  0  0  0  0  0  0  0  0
   11.1990   15.7000   19.3380 Cl  0  0  0  0  0  0  0  0  0  0  0  0
   10.6010   11.1020   23.1820 C   0  0  0  0  0  0  0  0  0  0  0  0
   10.0960    9.7950   23.3170 C   0  0  0  0  0  0  0  0  0  0  0  0
    9.0500    6.4920   23.1790 H   0  0  0  0  0  0  0  0  0  0  0  0
    9.3620    7.9870   22.2680 H   0  0  0  0  0  0  0  0  0  0  0  0
    7.7190    7.3290   22.3890 H   0  0  0  0  0  0  0  0  0  0  0  0
    7.2330   10.5360   25.2400 H   0  0  0  0  0  0  0  0  0  0  0  0
    8.0730   12.8800   25.0350 H   0  0  0  0  0  0  0  0  0  0  0  0
   11.1330   12.9600   21.7070 H   0  0  0  0  0  0  0  0  0  0  0  0
   12.3420   13.9190   20.2880 H   0  0  0  0  0  0  0  0  0  0  0  0
   13.1640   15.4700   20.5230 H   0  0  0  0  0  0  0  0  0  0  0  0
   11.5140   11.2650   22.6300 H   0  0  0  0  0  0  0  0  0  0  0  0
   10.6280    8.9630   22.8650 H   0  0  0  0  0  0  0  0  0  0  0  0
  1  2  1  0
  2  3  1  0
  3  4  2  0
  4  5  1  0
  5  6  2  0
  6  7  1  0
  7  8  2  0
  7  9  1  0
  9 10  1  0
 10 11  2  0
 10 12  1  0
 12 13  1  0
  6 14  1  0
 14 15  2  0
 15  3  1  0
  1 16  1  0
  1 17  1  0
  1 18  1  0
  4 19  1  0
  5 20  1  0
  9 21  1  0
 12 22  1  0
 12 23  1  0
 14 24  1  0
 15 25  1  0
A    1
 C1 
A    2
 O1 
A    3
 C2 
A    4
 C3 
A    5
 C4 
A    6
 C5 
A    7
 C6 
A    8
 O2 
A    9
 N1 
A   10
 C7 
A   11
 O3 
A   12
 C8 
A   13
CL1 
A   14
 C9 
A   15
 C10
A   16
 H1 
A   17
 H2 
A   18
 H3 
A   19
 H4 
A   20
 H5 
A   21
 H6 
A   22
 H7 
A   23
 H8 
A   24
 H9 
A   25
 H10
M  END
>  <ref_pdb>  (113) 
x0451_0A

>  <ref_mols>  (113) 
x0451_0A,x0554_0A,x0556_0A,x0566_0A,x0310_0A,x0416_0A

>  <original SMILES>  (113) 
COc1ccc(C(=O)NC(=O)CCl)cc1

>  <rationale>  (113) 
info info set:ROCS-electro;Warhead 5.599961705226205Å to Cys110:SG; hbond:S87+S125; 

>  <∆∆G>  (113) 
-8.211624

>  <comRMSD>  (113) 
0.710911

>  <ROCS_TanimotoCombo>  (113) 
0.448

>  <ROCS_ShapeTanimoto>  (113) 
0.281

>  <ROCS_ColorTanimoto>  (113) 
0.166

>  <distance>  (113) 
5.599962

$$$$
EN300_6494717
     RDKit          3D

 42 43  0  0  0  0  0  0  0  0999 V2000
    4.4840   12.3400   27.2010 C   0  0  0  0  0  0  0  0  0  0  0  0
    5.3370   11.2610   26.8240 O   0  0  0  0  0  0  0  0  0  0  0  0
    6.4170   11.6090   26.0590 C   0  0  0  0  0  0  0  0  0  0  0  0
    6.7450   12.9830   25.7920 C   0  0  0  0  0  0  0  0  0  0  0  0
    7.8750   13.0540   25.0000 C   0  0  0  0  0  0  0  0  0  0  0  0
    8.6960   11.9780   24.4570 C   0  0  0  0  0  0  0  0  0  0  0  0
    8.3210   10.7020   24.7490 C   0  0  0  0  0  0  0  0  0  0  0  0
    7.1720   10.5070   25.5580 C   0  0  0  0  0  0  0  0  0  0  0  0
    9.1320    9.4980   24.2180 C   0  0  1  0  0  0  0  0  0  0  0  0
    8.3450    8.4490   23.6290 N   0  0  0  0  0  0  0  0  0  0  0  0
   10.1060    9.8630   23.2700 C   0  0  0  0  0  0  0  0  0  0  0  0
   10.7560   11.0700   23.5390 C   0  0  0  0  0  0  0  0  0  0  0  0
    9.8660   12.2300   23.6440 N   0  0  0  0  0  0  0  0  0  0  0  0
   10.4290   13.4860   23.3950 C   0  0  0  0  0  0  0  0  0  0  0  0
   10.6170   14.3810   24.2110 O   0  0  0  0  0  0  0  0  0  0  0  0
   10.7720   13.5960   22.0730 O   0  0  0  0  0  0  0  0  0  0  0  0
   11.1010   14.8620   21.4540 C   0  0  0  0  0  0  0  0  0  0  0  0
   12.1460   15.5540   22.2240 C   0  0  0  0  0  0  0  0  0  0  0  0
   11.6960   14.5430   20.0720 C   0  0  0  0  0  0  0  0  0  0  0  0
    9.8530   15.7250   21.2700 C   0  0  0  0  0  0  0  0  0  0  0  0
    4.2600   12.9270   26.3030 H   0  0  0  0  0  0  0  0  0  0  0  0
    3.5440   11.9770   27.6290 H   0  0  0  0  0  0  0  0  0  0  0  0
    4.9660   12.9960   27.9320 H   0  0  0  0  0  0  0  0  0  0  0  0
    6.1960   13.8410   26.1520 H   0  0  0  0  0  0  0  0  0  0  0  0
    8.2190   14.0550   24.7340 H   0  0  0  0  0  0  0  0  0  0  0  0
    6.8500    9.4980   25.8090 H   0  0  0  0  0  0  0  0  0  0  0  0
    9.6820    9.0770   25.0430 H   0  0  0  0  0  0  0  0  0  0  0  0
    7.3930    8.7800   23.5270 H   0  0  0  0  0  0  0  0  0  0  0  0
    8.6810    8.2750   22.6800 H   0  0  0  0  0  0  0  0  0  0  0  0
    9.6950    9.8290   22.2790 H   0  0  0  0  0  0  0  0  0  0  0  0
   10.8360    9.0650   23.1550 H   0  0  0  0  0  0  0  0  0  0  0  0
   11.4000   11.1140   24.4120 H   0  0  0  0  0  0  0  0  0  0  0  0
   11.4200   11.2340   22.6910 H   0  0  0  0  0  0  0  0  0  0  0  0
   11.8340   16.4510   22.7400 H   0  0  0  0  0  0  0  0  0  0  0  0
   12.5770   14.8880   22.9760 H   0  0  0  0  0  0  0  0  0  0  0  0
   12.9770   15.8240   21.5600 H   0  0  0  0  0  0  0  0  0  0  0  0
   10.9240   14.2370   19.3570 H   0  0  0  0  0  0  0  0  0  0  0  0
   12.4360   13.7550   20.1450 H   0  0  0  0  0  0  0  0  0  0  0  0
   12.2210   15.4120   19.6600 H   0  0  0  0  0  0  0  0  0  0  0  0
   10.1260   16.7510   20.9880 H   0  0  0  0  0  0  0  0  0  0  0  0
    9.2030   15.3460   20.4740 H   0  0  0  0  0  0  0  0  0  0  0  0
    9.2550   15.7650   22.1870 H   0  0  0  0  0  0  0  0  0  0  0  0
  1  2  1  0
  2  3  1  0
  3  4  2  0
  4  5  1  0
  5  6  2  0
  6  7  1  0
  7  8  2  0
  7  9  1  0
  9 10  1  0
  9 11  1  0
 11 12  1  0
 12 13  1  0
 13 14  1  0
 14 15  2  0
 14 16  1  0
 16 17  1  0
 17 18  1  0
 17 19  1  0
 17 20  1  0
  8  3  1  0
 13  6  1  0
  1 21  1  0
  1 22  1  0
  1 23  1  0
  4 24  1  0
  5 25  1  0
  8 26  1  0
  9 27  1  1
 10 28  1  0
 10 29  1  0
 11 30  1  0
 11 31  1  0
 12 32  1  0
 12 33  1  0
 18 34  1  0
 18 35  1  0
 18 36  1  0
 19 37  1  0
 19 38  1  0
 19 39  1  0
 20 40  1  0
 20 41  1  0
 20 42  1  0
A    1
 C1 
A    2
 O1 
A    3
 C2 
A    4
 C3 
A    5
 C4 
A    6
 C5 
A    7
 C6 
A    8
 C7 
A    9
 C8 
A   10
 N1 
A   11
 C9 
A   12
 C10
A   13
 N2 
A   14
 C11
A   15
 O2 
A   16
 O3 
A   17
 C12
A   18
 C13
A   19
 C14
A   20
 C15
A   21
 H1 
A   22
 H2 
A   23
 H3 
A   24
 H4 
A   25
 H5 
A   26
 H6 
A   27
 H7 
A   28
 H8 
A   29
 H9 
A   30
 H10
A   31
 H11
A   32
 H12
A   33
 H13
A   34
 H14
A   35
 H15
A   36
 H16
A   37
 H17
A   38
 H18
A   39
 H19
A   40
 H20
A   41
 H21
A   42
 H22
M  END
>  <ref_pdb>  (114) 
x0451_0A

>  <ref_mols>  (114) 
x0451_0A,x0554_0A,x0556_0A,x0566_0A,x0310_0A,x0416_0A

>  <original SMILES>  (114) 
COc1ccc2c(c1)[C@@H](N)CCN2C(=O)OC(C)(C)C

>  <rationale>  (114) 
info info set:ROCS-BB-1RB;Warhead nanÅ to Cys110:SG; hbond:T126; hydroph_interaction:Y89; 

>  <∆∆G>  (114) 
-8.189746

>  <comRMSD>  (114) 
0.531333

>  <ROCS_TanimotoCombo>  (114) 
0.537

>  <ROCS_ShapeTanimoto>  (114) 
0.367

>  <ROCS_ColorTanimoto>  (114) 
0.17

>  <distance>  (114) 
nan

$$$$
EN300_97265
     RDKit          3D

 41 42  0  0  0  0  0  0  0  0999 V2000
    7.9620   14.3580   24.7820 C   0  0  0  0  0  0  0  0  0  0  0  0
    7.9230   12.8440   24.9250 C   0  0  0  0  0  0  0  0  0  0  0  0
    6.9120   12.2390   25.5820 N   0  0  0  0  0  0  0  0  0  0  0  0
    7.2500   10.8990   25.4860 N   0  0  0  0  0  0  0  0  0  0  0  0
    6.4030   10.0050   26.0760 C   0  0  0  0  0  0  0  0  0  0  0  0
    8.3880   10.6820   24.8150 C   0  0  0  0  0  0  0  0  0  0  0  0
    8.8690   11.9080   24.4340 C   0  0  0  0  0  0  0  0  0  0  0  0
   10.0640   11.9790   23.7170 N   0  0  0  0  0  0  0  0  0  0  0  0
   10.6840   13.1850   23.4720 C   0  0  0  0  0  0  0  0  0  0  0  0
   10.5820   14.1350   24.2340 O   0  0  0  0  0  0  0  0  0  0  0  0
   11.3650   13.3050   22.4540 O   0  0  0  0  0  0  0  0  0  0  0  0
   11.4730   14.5570   21.7290 C   0  0  0  0  0  0  0  0  0  0  0  0
   10.2940   15.1910   21.3420 C   0  0  0  0  0  0  0  0  0  0  0  0
   11.1050   15.8320   22.4190 C   0  0  0  0  0  0  0  0  0  0  0  0
   11.8120   14.5840   20.1510 C   0  0  0  0  0  0  0  0  0  0  0  0
   10.8740   10.7580   23.5670 C   0  0  0  0  0  0  0  0  0  0  0  0
   10.2450    9.4300   23.9790 C   0  0  2  0  0  0  0  0  0  0  0  0
   10.0930    8.4630   22.9160 C   0  0  0  0  0  0  0  0  0  0  0  0
    8.9090    9.4740   24.5920 N   0  0  0  0  0  0  0  0  0  0  0  0
    8.7280   14.7890   25.4340 H   0  0  0  0  0  0  0  0  0  0  0  0
    6.9990   14.8080   25.0470 H   0  0  0  0  0  0  0  0  0  0  0  0
    8.2000   14.6480   23.7520 H   0  0  0  0  0  0  0  0  0  0  0  0
    5.5640    9.7710   25.4370 H   0  0  0  0  0  0  0  0  0  0  0  0
    6.9570    9.1140   26.3090 H   0  0  0  0  0  0  0  0  0  0  0  0
    6.0170   10.4280   27.0110 H   0  0  0  0  0  0  0  0  0  0  0  0
   10.5370   16.0440   20.7030 H   0  0  0  0  0  0  0  0  0  0  0  0
    9.6960   15.5130   22.2040 H   0  0  0  0  0  0  0  0  0  0  0  0
    9.6560   14.5010   20.7760 H   0  0  0  0  0  0  0  0  0  0  0  0
   11.7470   16.6390   22.0680 H   0  0  0  0  0  0  0  0  0  0  0  0
   11.2040   15.7500   23.4970 H   0  0  0  0  0  0  0  0  0  0  0  0
   10.0840   16.1370   22.2160 H   0  0  0  0  0  0  0  0  0  0  0  0
   12.3910   15.4670   19.8700 H   0  0  0  0  0  0  0  0  0  0  0  0
   10.9120   14.5790   19.5430 H   0  0  0  0  0  0  0  0  0  0  0  0
   12.4120   13.7260   19.8650 H   0  0  0  0  0  0  0  0  0  0  0  0
   11.2780   10.7980   22.5690 H   0  0  0  0  0  0  0  0  0  0  0  0
   11.7350   10.9320   24.2240 H   0  0  0  0  0  0  0  0  0  0  0  0
   10.8970    8.9640   24.7230 H   0  0  0  0  0  0  0  0  0  0  0  0
    9.1150    7.9660   22.9560 H   0  0  0  0  0  0  0  0  0  0  0  0
   10.8500    7.6980   22.9970 H   0  0  0  0  0  0  0  0  0  0  0  0
   10.1880    8.9600   21.9410 H   0  0  0  0  0  0  0  0  0  0  0  0
    8.2740    8.7200   24.3300 H   0  0  0  0  0  0  0  0  0  0  0  0
  1  2  1  0
  2  3  2  0
  3  4  1  0
  4  5  1  0
  4  6  1  0
  6  7  2  0
  7  8  1  0
  8  9  1  0
  9 10  2  0
  9 11  1  0
 11 12  1  0
 12 13  1  0
 12 14  1  0
 12 15  1  0
  8 16  1  0
 16 17  1  0
 17 18  1  0
 17 19  1  0
  7  2  1  0
 19  6  1  0
  1 20  1  0
  1 21  1  0
  1 22  1  0
  5 23  1  0
  5 24  1  0
  5 25  1  0
 13 26  1  0
 13 27  1  0
 13 28  1  0
 14 29  1  0
 14 30  1  0
 14 31  1  0
 15 32  1  0
 15 33  1  0
 15 34  1  0
 16 35  1  0
 16 36  1  0
 17 37  1  1
 18 38  1  0
 18 39  1  0
 18 40  1  0
 19 41  1  0
A    1
 C1 
A    2
 C2 
A    3
 N1 
A    4
 N2 
A    5
 C3 
A    6
 C4 
A    7
 C5 
A    8
 N3 
A    9
 C6 
A   10
 O1 
A   11
 O2 
A   12
 C7 
A   13
 C8 
A   14
 C9 
A   15
 C10
A   16
 C11
A   17
 C12
A   18
 C13
A   19
 N4 
A   20
 H1 
A   21
 H2 
A   22
 H3 
A   23
 H4 
A   24
 H5 
A   25
 H6 
A   26
 H7 
A   27
 H8 
A   28
 H9 
A   29
 H10
A   30
 H11
A   31
 H12
A   32
 H13
A   33
 H14
A   34
 H15
A   35
 H16
A   36
 H17
A   37
 H18
A   38
 H19
A   39
 H20
A   40
 H21
A   41
 H22
M  END
>  <ref_pdb>  (115) 
x0451_0A

>  <ref_mols>  (115) 
x0451_0A,x0554_0A,x0556_0A,x0566_0A,x0310_0A,x0416_0A

>  <original SMILES>  (115) 
Cc1nn(C)c2c1N(C(=O)OC(C)(C)C)C[C@H](C)N2

>  <rationale>  (115) 
info info set:ROCS-BB-0RB;Warhead nanÅ to Cys110:SG; hydroph_interaction:Y89+V124+D109; 

>  <∆∆G>  (115) 
-8.186837

>  <comRMSD>  (115) 
0.612467

>  <ROCS_TanimotoCombo>  (115) 
0.513

>  <ROCS_ShapeTanimoto>  (115) 
0.354

>  <ROCS_ColorTanimoto>  (115) 
0.159

>  <distance>  (115) 
nan

$$$$
EN300_39868543
     RDKit          3D

 25 27  0  0  0  0  0  0  0  0999 V2000
    8.4470    7.9920   24.3420 F   0  0  0  0  0  0  0  0  0  0  0  0
    8.8260    9.2460   24.1920 C   0  0  0  0  0  0  0  0  0  0  0  0
   10.0000    9.4460   23.3460 C   0  0  0  0  0  0  0  0  0  0  0  0
   10.4930   10.8400   23.1350 C   0  0  0  0  0  0  0  0  0  0  0  0
    9.8150   11.8840   23.7400 C   0  0  0  0  0  0  0  0  0  0  0  0
   10.3720   13.2400   23.4600 C   0  0  0  0  0  0  0  0  0  0  0  0
   10.2620   14.3350   24.2460 N   0  0  0  0  0  0  0  0  0  0  0  0
   10.9150   15.3660   23.6200 N   0  0  0  0  0  0  0  0  0  0  0  0
   11.4330   14.8010   22.3900 C   0  0  0  0  0  0  0  0  0  0  0  0
   12.3840   15.5790   21.1190 S   0  0  0  0  0  0  0  0  0  0  0  0
   11.0820   13.5080   22.3200 N   0  0  0  0  0  0  0  0  0  0  0  0
    8.6610   11.6740   24.5730 C   0  0  0  0  0  0  0  0  0  0  0  0
    8.0240   12.7530   25.1610 C   0  0  0  0  0  0  0  0  0  0  0  0
    6.8150   12.5210   26.0390 C   0  0  0  0  0  0  0  0  0  0  0  0
    6.3780   11.2060   26.2270 C   0  0  0  0  0  0  0  0  0  0  0  0
    7.0530   10.1470   25.6100 C   0  0  0  0  0  0  0  0  0  0  0  0
    8.1740   10.3480   24.7940 C   0  0  0  0  0  0  0  0  0  0  0  0
   10.4150    8.5180   22.9400 H   0  0  0  0  0  0  0  0  0  0  0  0
   11.3550   11.0590   22.5260 H   0  0  0  0  0  0  0  0  0  0  0  0
   13.5250   14.9040   21.3450 H   0  0  0  0  0  0  0  0  0  0  0  0
   11.2990   12.8500   21.5730 H   0  0  0  0  0  0  0  0  0  0  0  0
    8.3680   13.7760   25.0120 H   0  0  0  0  0  0  0  0  0  0  0  0
    6.3010   13.3560   26.5080 H   0  0  0  0  0  0  0  0  0  0  0  0
    5.5120   11.0050   26.8520 H   0  0  0  0  0  0  0  0  0  0  0  0
    6.6840    9.1450   25.7810 H   0  0  0  0  0  0  0  0  0  0  0  0
  1  2  1  0
  2  3  2  0
  3  4  1  0
  4  5  2  0
  5  6  1  0
  6  7  2  0
  7  8  1  0
  8  9  2  0
  9 10  1  0
  9 11  1  0
  5 12  1  0
 12 13  2  0
 13 14  1  0
 14 15  2  0
 15 16  1  0
 16 17  2  0
 17  2  1  0
 11  6  1  0
 17 12  1  0
  3 18  1  0
  4 19  1  0
 10 20  1  0
 11 21  1  0
 13 22  1  0
 14 23  1  0
 15 24  1  0
 16 25  1  0
A    1
 F1 
A    2
 C1 
A    3
 C2 
A    4
 C3 
A    5
 C4 
A    6
 C5 
A    7
 N1 
A    8
 N2 
A    9
 C6 
A   10
 S1 
A   11
 N3 
A   12
 C7 
A   13
 C8 
A   14
 C9 
A   15
 C10
A   16
 C11
A   17
 C12
A   18
 H1 
A   19
 H2 
A   20
 H3 
A   21
 H4 
A   22
 H5 
A   23
 H6 
A   24
 H7 
A   25
 H8 
M  END
>  <ref_pdb>  (116) 
x0451_0A

>  <ref_mols>  (116) 
x0451_0A,x0554_0A,x0556_0A,x0566_0A,x0310_0A,x0416_0A

>  <original SMILES>  (116) 
Fc1ccc(-c2nnc(S)[nH]2)c2ccccc12

>  <rationale>  (116) 
info info set:ROCS-BB-1RB;Warhead nanÅ to Cys110:SG; hbond:S87+S125; 

>  <∆∆G>  (116) 
-8.176796

>  <comRMSD>  (116) 
0.346357

>  <ROCS_TanimotoCombo>  (116) 
0.528

>  <ROCS_ShapeTanimoto>  (116) 
0.348

>  <ROCS_ColorTanimoto>  (116) 
0.18

>  <distance>  (116) 
nan

$$$$
Z1551629912
     RDKit          3D

 33 33  0  0  0  0  0  0  0  0999 V2000
    6.8070   12.3740   26.3250 C   0  0  0  0  0  0  0  0  0  0  0  0
    7.8260   11.7570   25.4280 C   0  0  0  0  0  0  0  0  0  0  0  0
    8.9090   12.4640   24.9630 C   0  0  0  0  0  0  0  0  0  0  0  0
    9.8500   11.8650   24.1270 C   0  0  0  0  0  0  0  0  0  0  0  0
   11.1700   12.9900   23.6930 S   0  0  0  0  0  6  0  0  0  0  0  0
   11.0220   14.1930   24.4800 O   0  0  0  0  0  0  0  0  0  0  0  0
   12.3930   12.2270   23.7090 O   0  0  0  0  0  0  0  0  0  0  0  0
   10.9030   13.4650   22.1030 N   0  0  0  0  0  0  0  0  0  0  0  0
   10.1070   14.6560   21.7940 C   0  0  0  0  0  0  0  0  0  0  0  0
   10.8810   15.5970   20.8580 C   0  0  1  0  0  0  0  0  0  0  0  0
   11.0190   15.0300   19.4450 C   0  0  0  0  0  0  0  0  0  0  0  0
   10.1890   16.8440   20.7730 O   0  0  0  0  0  0  0  0  0  0  0  0
    9.6930   10.5080   23.7350 C   0  0  0  0  0  0  0  0  0  0  0  0
   10.6250    9.7650   22.8500 C   0  0  0  0  0  0  0  0  0  0  0  0
    8.5800    9.8060   24.2240 C   0  0  0  0  0  0  0  0  0  0  0  0
    7.6810   10.4630   25.0680 C   0  0  0  0  0  0  0  0  0  0  0  0
    6.3110    9.7530   25.7520 Cl  0  0  0  0  0  0  0  0  0  0  0  0
    5.8530   12.4810   25.8010 H   0  0  0  0  0  0  0  0  0  0  0  0
    6.6270   11.7540   27.2100 H   0  0  0  0  0  0  0  0  0  0  0  0
    7.1460   13.3540   26.6750 H   0  0  0  0  0  0  0  0  0  0  0  0
    9.0360   13.5060   25.2550 H   0  0  0  0  0  0  0  0  0  0  0  0
   10.9910   12.7010   21.4270 H   0  0  0  0  0  0  0  0  0  0  0  0
    9.8310   15.1940   22.7080 H   0  0  0  0  0  0  0  0  0  0  0  0
    9.1790   14.3500   21.3040 H   0  0  0  0  0  0  0  0  0  0  0  0
   11.8830   15.7980   21.2580 H   0  0  0  0  0  0  0  0  0  0  0  0
   11.1460   13.9440   19.4710 H   0  0  0  0  0  0  0  0  0  0  0  0
   10.1500   15.2670   18.8250 H   0  0  0  0  0  0  0  0  0  0  0  0
   11.9150   15.4340   18.9560 H   0  0  0  0  0  0  0  0  0  0  0  0
   10.4720   17.4070   21.5060 H   0  0  0  0  0  0  0  0  0  0  0  0
   11.2910   10.4800   22.3970 H   0  0  0  0  0  0  0  0  0  0  0  0
   10.0980    9.2400   22.0490 H   0  0  0  0  0  0  0  0  0  0  0  0
   11.1770    9.0100   23.4100 H   0  0  0  0  0  0  0  0  0  0  0  0
    8.4170    8.7640   23.9590 H   0  0  0  0  0  0  0  0  0  0  0  0
  1  2  1  0
  2  3  2  0
  3  4  1  0
  4  5  1  0
  5  6  2  0
  5  7  2  0
  5  8  1  0
  8  9  1  0
  9 10  1  0
 10 11  1  0
 10 12  1  0
  4 13  2  0
 13 14  1  0
 13 15  1  0
 15 16  2  0
 16 17  1  0
 16  2  1  0
  1 18  1  0
  1 19  1  0
  1 20  1  0
  3 21  1  0
  8 22  1  0
  9 23  1  0
  9 24  1  0
 10 25  1  1
 11 26  1  0
 11 27  1  0
 11 28  1  0
 12 29  1  0
 14 30  1  0
 14 31  1  0
 14 32  1  0
 15 33  1  0
A    1
 C1 
A    2
 C2 
A    3
 C3 
A    4
 C4 
A    5
 S1 
A    6
 O1 
A    7
 O2 
A    8
 N1 
A    9
 C5 
A   10
 C6 
A   11
 C7 
A   12
 O3 
A   13
 C8 
A   14
 C9 
A   15
 C10
A   16
 C11
A   17
CL1 
A   18
 H1 
A   19
 H2 
A   20
 H3 
A   21
 H4 
A   22
 H5 
A   23
 H6 
A   24
 H7 
A   25
 H8 
A   26
 H9 
A   27
 H10
A   28
 H11
A   29
 H12
A   30
 H13
A   31
 H14
A   32
 H15
A   33
 H16
M  END
>  <ref_pdb>  (117) 
x0451_0A

>  <ref_mols>  (117) 
x0451_0A,x0554_0A,x0556_0A,x0566_0A,x0310_0A,x0416_0A

>  <original SMILES>  (117) 
Cc1cc(S(=O)(=O)NC[C@@H](C)O)c(C)cc1Cl

>  <rationale>  (117) 
info info set:ROCS-shape_Q1;Warhead nanÅ to Cys110:SG; hbond:S87; hydroph_interaction:A110+V124; 

>  <∆∆G>  (117) 
-8.166336

>  <comRMSD>  (117) 
0.697161

>  <ROCS_TanimotoCombo>  (117) 
0.451

>  <ROCS_ShapeTanimoto>  (117) 
0.291

>  <ROCS_ColorTanimoto>  (117) 
0.16

>  <distance>  (117) 
nan

$$$$
Z82833794
     RDKit          3D

 31 32  0  0  0  0  0  0  0  0999 V2000
   12.4670   15.3730   21.7620 C   0  0  0  0  0  0  0  0  0  0  0  0
   11.3530   15.9510   22.4260 O   0  0  0  0  0  0  0  0  0  0  0  0
   10.3220   14.9890   22.5370 C   0  0  0  0  0  0  0  0  0  0  0  0
   10.6410   13.8680   23.5350 C   0  0  0  0  0  0  0  0  0  0  0  0
   11.0970   14.0410   24.6600 O   0  0  0  0  0  0  0  0  0  0  0  0
   10.3450   12.6170   23.0430 N   0  0  0  0  0  0  0  0  0  0  0  0
   10.1370   11.4750   23.9280 C   0  0  2  0  0  0  0  0  0  0  0  0
   10.3860   10.2340   23.0880 C   0  0  0  0  0  0  0  0  0  0  0  0
   10.3050    8.9820   23.8640 C   0  0  0  0  0  0  0  0  0  0  0  0
    8.5650    8.7080   24.1750 S   0  0  0  0  0  0  0  0  0  0  0  0
    8.0470   10.2980   24.8070 C   0  0  0  0  0  0  0  0  0  0  0  0
    6.8210   10.3430   25.4940 C   0  0  0  0  0  0  0  0  0  0  0  0
    6.3390   11.5380   26.0210 C   0  0  0  0  0  0  0  0  0  0  0  0
    7.0760   12.7050   25.8660 C   0  0  0  0  0  0  0  0  0  0  0  0
    8.2920   12.6680   25.1900 C   0  0  0  0  0  0  0  0  0  0  0  0
    8.8020   11.4700   24.6490 C   0  0  0  0  0  0  0  0  0  0  0  0
   12.1320   14.7520   20.9260 H   0  0  0  0  0  0  0  0  0  0  0  0
   13.1600   16.1300   21.3940 H   0  0  0  0  0  0  0  0  0  0  0  0
   12.9910   14.7300   22.4690 H   0  0  0  0  0  0  0  0  0  0  0  0
   10.1560   14.5250   21.5570 H   0  0  0  0  0  0  0  0  0  0  0  0
    9.4000   15.4790   22.8700 H   0  0  0  0  0  0  0  0  0  0  0  0
   10.6740   12.3740   22.0980 H   0  0  0  0  0  0  0  0  0  0  0  0
   10.9150   11.5100   24.7040 H   0  0  0  0  0  0  0  0  0  0  0  0
   11.3430   10.3130   22.6150 H   0  0  0  0  0  0  0  0  0  0  0  0
    9.6830   10.1550   22.2850 H   0  0  0  0  0  0  0  0  0  0  0  0
   10.8750    9.0410   24.7960 H   0  0  0  0  0  0  0  0  0  0  0  0
   10.6870    8.1450   23.2740 H   0  0  0  0  0  0  0  0  0  0  0  0
    6.2260    9.4450   25.6270 H   0  0  0  0  0  0  0  0  0  0  0  0
    5.3900   11.5550   26.5490 H   0  0  0  0  0  0  0  0  0  0  0  0
    6.7050   13.6410   26.2720 H   0  0  0  0  0  0  0  0  0  0  0  0
    8.8550   13.5950   25.0810 H   0  0  0  0  0  0  0  0  0  0  0  0
  1  2  1  0
  2  3  1  0
  3  4  1  0
  4  5  2  0
  4  6  1  0
  6  7  1  0
  7  8  1  0
  8  9  1  0
  9 10  1  0
 10 11  1  0
 11 12  2  0
 12 13  1  0
 13 14  2  0
 14 15  1  0
 15 16  2  0
 16  7  1  0
 16 11  1  0
  1 17  1  0
  1 18  1  0
  1 19  1  0
  3 20  1  0
  3 21  1  0
  6 22  1  0
  7 23  1  1
  8 24  1  0
  8 25  1  0
  9 26  1  0
  9 27  1  0
 12 28  1  0
 13 29  1  0
 14 30  1  0
 15 31  1  0
A    1
 C1 
A    2
 O1 
A    3
 C2 
A    4
 C3 
A    5
 O2 
A    6
 N1 
A    7
 C4 
A    8
 C5 
A    9
 C6 
A   10
 S1 
A   11
 C7 
A   12
 C8 
A   13
 C9 
A   14
 C10
A   15
 C11
A   16
 C12
A   17
 H1 
A   18
 H2 
A   19
 H3 
A   20
 H4 
A   21
 H5 
A   22
 H6 
A   23
 H7 
A   24
 H8 
A   25
 H9 
A   26
 H10
A   27
 H11
A   28
 H12
A   29
 H13
A   30
 H14
A   31
 H15
M  END
>  <ref_pdb>  (118) 
x0451_0A

>  <ref_mols>  (118) 
x0451_0A,x0554_0A,x0556_0A,x0566_0A,x0310_0A,x0416_0A

>  <original SMILES>  (118) 
COCC(=O)N[C@@H]1CCSc2ccccc21

>  <rationale>  (118) 
info info set:ROCS-shape_Q1;Warhead nanÅ to Cys110:SG; hbond:S87+S125; 

>  <∆∆G>  (118) 
-8.164748

>  <comRMSD>  (118) 
0.602691

>  <ROCS_TanimotoCombo>  (118) 
0.453

>  <ROCS_ShapeTanimoto>  (118) 
0.307

>  <ROCS_ColorTanimoto>  (118) 
0.146

>  <distance>  (118) 
nan

$$$$
EN300_27782824
     RDKit          3D

 40 41  0  0  0  0  0  0  0  0999 V2000
    9.8910    8.6080   22.8440 C   0  0  0  0  0  0  0  0  0  0  0  0
    9.6310    9.6060   23.9670 C   0  0  1  0  0  0  0  0  0  0  0  0
   10.2470   10.9580   23.5550 C   0  0  0  0  0  0  0  0  0  0  0  0
    9.5410   12.1170   23.8060 N   0  0  0  0  0  0  0  0  0  0  0  0
   10.1530   13.3780   23.4590 C   0  0  0  0  0  0  0  0  0  0  0  0
   10.5710   14.1460   24.3220 O   0  0  0  0  0  0  0  0  0  0  0  0
   10.2330   13.6610   22.1290 O   0  0  0  0  0  0  0  0  0  0  0  0
   11.2210   14.6270   21.7090 C   0  0  0  0  0  0  0  0  0  0  0  0
   11.4800   14.4850   20.2060 C   0  0  0  0  0  0  0  0  0  0  0  0
   10.7350   16.0360   21.9680 C   0  0  0  0  0  0  0  0  0  0  0  0
   12.4930   14.3430   22.4630 C   0  0  0  0  0  0  0  0  0  0  0  0
    8.4540   11.9920   24.7280 C   0  0  0  0  0  0  0  0  0  0  0  0
    7.9110   13.1860   25.5020 C   0  0  0  0  0  0  0  0  0  0  0  0
    6.8480   12.9860   26.3720 C   0  0  0  0  0  0  0  0  0  0  0  0
    6.2320   11.6040   26.5570 C   0  0  0  0  0  0  0  0  0  0  0  0
    5.1580   11.4040   27.4230 C   0  0  0  0  0  0  0  0  0  0  0  0
    3.8930   12.0380   27.3220 O   0  0  0  0  0  0  0  0  0  0  0  0
    5.4110   10.5270   28.4090 O   0  0  0  0  0  0  0  0  0  0  0  0
    6.7670   10.5440   25.8340 C   0  0  0  0  0  0  0  0  0  0  0  0
    7.8440   10.7390   24.9470 C   0  0  0  0  0  0  0  0  0  0  0  0
    8.2520    9.6100   24.3080 O   0  0  0  0  0  0  0  0  0  0  0  0
   10.1460    9.1290   21.9160 H   0  0  0  0  0  0  0  0  0  0  0  0
   10.7120    7.9380   23.0770 H   0  0  0  0  0  0  0  0  0  0  0  0
    9.0070    7.9910   22.6500 H   0  0  0  0  0  0  0  0  0  0  0  0
   10.1730    9.2420   24.8440 H   0  0  0  0  0  0  0  0  0  0  0  0
   10.5270   10.9100   22.5040 H   0  0  0  0  0  0  0  0  0  0  0  0
   11.1890   11.0980   24.0970 H   0  0  0  0  0  0  0  0  0  0  0  0
   10.6360   14.0120   19.6960 H   0  0  0  0  0  0  0  0  0  0  0  0
   12.3570   13.8480   20.0470 H   0  0  0  0  0  0  0  0  0  0  0  0
   11.6910   15.4360   19.7100 H   0  0  0  0  0  0  0  0  0  0  0  0
    9.8510   16.2880   21.3750 H   0  0  0  0  0  0  0  0  0  0  0  0
   11.5170   16.7590   21.7150 H   0  0  0  0  0  0  0  0  0  0  0  0
   10.4720   16.1560   23.0220 H   0  0  0  0  0  0  0  0  0  0  0  0
   12.3560   14.4340   23.5420 H   0  0  0  0  0  0  0  0  0  0  0  0
   13.2730   15.0330   22.1370 H   0  0  0  0  0  0  0  0  0  0  0  0
   12.8140   13.3130   22.2790 H   0  0  0  0  0  0  0  0  0  0  0  0
    8.3070   14.1910   25.4100 H   0  0  0  0  0  0  0  0  0  0  0  0
    6.3870   13.7800   26.9680 H   0  0  0  0  0  0  0  0  0  0  0  0
    5.2020    9.6490   28.0110 H   0  0  0  0  0  0  0  0  0  0  0  0
    6.3420    9.5530   25.9570 H   0  0  0  0  0  0  0  0  0  0  0  0
  1  2  1  0
  2  3  1  0
  3  4  1  0
  4  5  1  0
  5  6  2  0
  5  7  1  0
  7  8  1  0
  8  9  1  0
  8 10  1  0
  8 11  1  0
  4 12  1  0
 12 13  2  0
 13 14  1  0
 14 15  2  0
 15 16  1  0
 16 17  2  0
 16 18  1  0
 15 19  1  0
 19 20  2  0
 20 21  1  0
 21  2  1  0
 20 12  1  0
  1 22  1  0
  1 23  1  0
  1 24  1  0
  2 25  1  1
  3 26  1  0
  3 27  1  0
  9 28  1  0
  9 29  1  0
  9 30  1  0
 10 31  1  0
 10 32  1  0
 10 33  1  0
 11 34  1  0
 11 35  1  0
 11 36  1  0
 13 37  1  0
 14 38  1  0
 18 39  1  0
 19 40  1  0
A    1
 C1 
A    2
 C2 
A    3
 C3 
A    4
 N1 
A    5
 C4 
A    6
 O1 
A    7
 O2 
A    8
 C5 
A    9
 C6 
A   10
 C7 
A   11
 C8 
A   12
 C9 
A   13
 C10
A   14
 C11
A   15
 C12
A   16
 C13
A   17
 O3 
A   18
 O4 
A   19
 C14
A   20
 C15
A   21
 O5 
A   22
 H1 
A   23
 H2 
A   24
 H3 
A   25
 H4 
A   26
 H5 
A   27
 H6 
A   28
 H7 
A   29
 H8 
A   30
 H9 
A   31
 H10
A   32
 H11
A   33
 H12
A   34
 H13
A   35
 H14
A   36
 H15
A   37
 H16
A   38
 H17
A   39
 H18
A   40
 H19
M  END
>  <ref_pdb>  (119) 
x0451_0A

>  <ref_mols>  (119) 
x0451_0A,x0554_0A,x0556_0A,x0566_0A,x0310_0A,x0416_0A

>  <original SMILES>  (119) 
C[C@H]1CN(C(=O)OC(C)(C)C)c2ccc(C(=O)O)cc2O1

>  <rationale>  (119) 
info info set:ROCS-BB-1RB;Warhead nanÅ to Cys110:SG; hbond:S105; hydroph_interaction:Y89+V124+D109; 

>  <∆∆G>  (119) 
-8.163669

>  <comRMSD>  (119) 
0.326177

>  <ROCS_TanimotoCombo>  (119) 
0.544

>  <ROCS_ShapeTanimoto>  (119) 
0.366

>  <ROCS_ColorTanimoto>  (119) 
0.179

>  <distance>  (119) 
nan

$$$$
Z168233872
     RDKit          3D

 35 36  0  0  0  0  0  0  0  0999 V2000
    6.8660   11.7120   25.8210 C   0  0  0  0  0  0  0  0  0  0  0  0
    8.1640   11.4880   25.0160 C   0  0  0  0  0  0  0  0  0  0  0  0
    8.5220   10.0700   24.6020 C   0  0  0  0  0  0  0  0  0  0  0  0
    9.7800   10.3270   23.8810 C   0  0  0  0  0  0  0  0  0  0  0  0
   10.4290    9.0910   23.3040 C   0  0  0  0  0  0  0  0  0  0  0  0
   10.0280   11.7490   23.9560 N   0  0  0  0  0  0  0  0  0  0  0  0
   11.2150   12.4240   23.3780 C   0  0  0  0  0  0  0  0  0  0  0  0
   11.0400   13.9170   23.3140 C   0  0  0  0  0  0  0  0  0  0  0  0
   10.8660   14.5230   24.3780 O   0  0  0  0  0  0  0  0  0  0  0  0
   11.0620   14.5880   22.0880 N   0  0  0  0  0  0  0  0  0  0  0  0
   10.6800   15.9580   21.9850 C   0  0  0  0  0  0  0  0  0  0  0  0
   10.2170   16.2740   20.5770 C   0  0  0  0  0  0  0  0  0  0  0  0
   10.9710   15.7290   19.5470 C   0  0  0  0  0  0  0  0  0  0  0  0
   11.9000   14.5380   19.8410 C   0  0  0  0  0  0  0  0  0  0  0  0
   12.1810   14.3550   21.2190 C   0  0  0  0  0  0  0  0  0  0  0  0
    9.0480   12.4310   24.6280 N   0  0  0  0  0  0  0  0  0  0  0  0
    7.0730   11.8630   26.8860 H   0  0  0  0  0  0  0  0  0  0  0  0
    6.1850   10.8580   25.7190 H   0  0  0  0  0  0  0  0  0  0  0  0
    6.3460   12.6060   25.4620 H   0  0  0  0  0  0  0  0  0  0  0  0
    8.0370    9.1600   24.7690 H   0  0  0  0  0  0  0  0  0  0  0  0
   11.1140    8.6470   24.0230 H   0  0  0  0  0  0  0  0  0  0  0  0
    9.6740    8.3470   23.0380 H   0  0  0  0  0  0  0  0  0  0  0  0
   10.9940    9.3330   22.4020 H   0  0  0  0  0  0  0  0  0  0  0  0
   12.1080   12.1550   23.9440 H   0  0  0  0  0  0  0  0  0  0  0  0
   11.3700   12.0320   22.3980 H   0  0  0  0  0  0  0  0  0  0  0  0
   11.5220   16.6070   22.2220 H   0  0  0  0  0  0  0  0  0  0  0  0
    9.8820   16.1320   22.7130 H   0  0  0  0  0  0  0  0  0  0  0  0
    9.1820   15.9200   20.4600 H   0  0  0  0  0  0  0  0  0  0  0  0
   10.1840   17.3630   20.4570 H   0  0  0  0  0  0  0  0  0  0  0  0
   10.2050   15.2850   18.8960 H   0  0  0  0  0  0  0  0  0  0  0  0
   11.3980   16.4670   18.8840 H   0  0  0  0  0  0  0  0  0  0  0  0
   11.6320   13.6330   19.2960 H   0  0  0  0  0  0  0  0  0  0  0  0
   12.8640   14.8020   19.3770 H   0  0  0  0  0  0  0  0  0  0  0  0
   12.9700   15.0490   21.5380 H   0  0  0  0  0  0  0  0  0  0  0  0
   12.5530   13.3400   21.3730 H   0  0  0  0  0  0  0  0  0  0  0  0
  1  2  1  0
  2  3  1  0
  3  4  2  0
  4  5  1  0
  4  6  1  0
  6  7  1  0
  7  8  1  0
  8  9  2  0
  8 10  1  0
 10 11  1  0
 11 12  1  0
 12 13  1  0
 13 14  1  0
 14 15  1  0
  6 16  1  0
 16  2  2  0
 15 10  1  0
  1 17  1  0
  1 18  1  0
  1 19  1  0
  3 20  1  0
  5 21  1  0
  5 22  1  0
  5 23  1  0
  7 24  1  0
  7 25  1  0
 11 26  1  0
 11 27  1  0
 12 28  1  0
 12 29  1  0
 13 30  1  0
 13 31  1  0
 14 32  1  0
 14 33  1  0
 15 34  1  0
 15 35  1  0
A    1
 C1 
A    2
 C2 
A    3
 C3 
A    4
 C4 
A    5
 C5 
A    6
 N1 
A    7
 C6 
A    8
 C7 
A    9
 O1 
A   10
 N2 
A   11
 C8 
A   12
 C9 
A   13
 C10
A   14
 C11
A   15
 C12
A   16
 N3 
A   17
 H1 
A   18
 H2 
A   19
 H3 
A   20
 H4 
A   21
 H5 
A   22
 H6 
A   23
 H7 
A   24
 H8 
A   25
 H9 
A   26
 H10
A   27
 H11
A   28
 H12
A   29
 H13
A   30
 H14
A   31
 H15
A   32
 H16
A   33
 H17
A   34
 H18
A   35
 H19
M  END
>  <ref_pdb>  (120) 
x0451_0A

>  <ref_mols>  (120) 
x0451_0A,x0554_0A,x0556_0A,x0566_0A,x0310_0A,x0416_0A

>  <original SMILES>  (120) 
Cc1cc(C)n(CC(=O)N2CCCCC2)n1

>  <rationale>  (120) 
info info set:ROCS-shape_Q1;Warhead nanÅ to Cys110:SG; hydroph_interaction:Y90+V124; 

>  <∆∆G>  (120) 
-8.159352

>  <comRMSD>  (120) 
0.592022

>  <ROCS_TanimotoCombo>  (120) 
0.405

>  <ROCS_ShapeTanimoto>  (120) 
0.3

>  <ROCS_ColorTanimoto>  (120) 
0.105

>  <distance>  (120) 
nan

$$$$
Z3687614152
     RDKit          3D

 40 42  0  0  0  0  0  0  0  0999 V2000
    8.5900    7.6620   22.9090 C   0  0  0  0  0  0  0  0  0  0  0  0
    9.5510    8.7890   22.9650 C   0  0  0  0  0  0  0  0  0  0  0  0
   10.6980    8.6300   23.4830 C   0  0  0  0  0  0  0  0  0  0  0  0
    9.0810    9.9840   23.7550 C   0  0  0  0  0  0  0  0  0  0  0  0
    7.8720    9.9840   24.4450 N   0  0  0  0  0  0  0  0  0  0  0  0
    7.7870   11.2470   25.0540 N   0  0  0  0  0  0  0  0  0  0  0  0
    6.7070   11.6280   25.8370 C   0  0  0  0  0  0  0  0  0  0  0  0
    6.4910   13.1250   26.1060 C   0  0  0  0  0  0  0  0  0  0  0  0
    5.2830   13.4290   26.9640 C   0  0  0  0  0  0  0  0  0  0  0  0
    4.3450   12.3600   27.5260 C   0  0  0  0  0  0  0  0  0  0  0  0
    4.7570   10.9190   27.1310 C   0  0  0  0  0  0  0  0  0  0  0  0
    5.8640   10.6360   26.3430 C   0  0  0  0  0  0  0  0  0  0  0  0
    8.8740   11.9890   24.7650 C   0  0  0  0  0  0  0  0  0  0  0  0
    9.7950   11.1990   23.8950 C   0  0  0  0  0  0  0  0  0  0  0  0
   11.0950   11.5860   23.3420 C   0  0  0  0  0  0  0  0  0  0  0  0
   10.9400   12.7820   22.5810 N   0  0  0  0  0  0  0  0  0  0  0  0
   10.9050   14.0130   23.1570 C   0  0  0  0  0  0  0  0  0  0  0  0
   10.9760   14.2330   24.3590 O   0  0  0  0  0  0  0  0  0  0  0  0
   10.7670   15.0550   22.2450 C   0  0  2  0  0  0  0  0  0  0  0  0
   11.9720   15.5930   21.5220 C   0  0  0  0  0  0  0  0  0  0  0  0
   11.3860   16.2840   22.6320 O   0  0  0  0  0  0  0  0  0  0  0  0
    7.6230    8.0540   23.0460 H   0  0  0  0  0  0  0  0  0  0  0  0
    8.6140    7.1620   21.9450 H   0  0  0  0  0  0  0  0  0  0  0  0
    8.7500    6.8980   23.6700 H   0  0  0  0  0  0  0  0  0  0  0  0
    9.7140    9.0980   21.9340 H   0  0  0  0  0  0  0  0  0  0  0  0
   11.4710    9.3360   23.2330 H   0  0  0  0  0  0  0  0  0  0  0  0
   10.6360    8.6150   24.5700 H   0  0  0  0  0  0  0  0  0  0  0  0
   11.0230    7.6640   23.1570 H   0  0  0  0  0  0  0  0  0  0  0  0
    7.1460   13.9000   25.7140 H   0  0  0  0  0  0  0  0  0  0  0  0
    5.1320   14.4990   27.1520 H   0  0  0  0  0  0  0  0  0  0  0  0
    3.4790   12.5860   28.1420 H   0  0  0  0  0  0  0  0  0  0  0  0
    4.1530   10.0860   27.4840 H   0  0  0  0  0  0  0  0  0  0  0  0
    6.0590    9.5920   26.1250 H   0  0  0  0  0  0  0  0  0  0  0  0
    9.1520   13.0050   25.0590 H   0  0  0  0  0  0  0  0  0  0  0  0
   11.4360   10.8220   22.6610 H   0  0  0  0  0  0  0  0  0  0  0  0
   11.8600   11.7170   24.1120 H   0  0  0  0  0  0  0  0  0  0  0  0
   11.0780   12.7080   21.5760 H   0  0  0  0  0  0  0  0  0  0  0  0
    9.8140   15.1050   21.7350 H   0  0  0  0  0  0  0  0  0  0  0  0
   12.9270   15.1100   21.6800 H   0  0  0  0  0  0  0  0  0  0  0  0
   11.8300   15.9960   20.5280 H   0  0  0  0  0  0  0  0  0  0  0  0
  1  2  1  0
  2  3  1  0
  2  4  1  0
  4  5  2  0
  5  6  1  0
  6  7  1  0
  7  8  2  0
  8  9  1  0
  9 10  2  0
 10 11  1  0
 11 12  2  0
  6 13  1  0
 13 14  2  0
 14 15  1  0
 15 16  1  0
 16 17  1  0
 17 18  2  0
 17 19  1  0
 19 20  1  0
 20 21  1  0
 14  4  1  0
 21 19  1  0
 12  7  1  0
  1 22  1  0
  1 23  1  0
  1 24  1  0
  2 25  1  0
  3 26  1  0
  3 27  1  0
  3 28  1  0
  8 29  1  0
  9 30  1  0
 10 31  1  0
 11 32  1  0
 12 33  1  0
 13 34  1  0
 15 35  1  0
 15 36  1  0
 16 37  1  0
 19 38  1  6
 20 39  1  0
 20 40  1  0
A    1
 C1 
A    2
 C2 
A    3
 C3 
A    4
 C4 
A    5
 N1 
A    6
 N2 
A    7
 C5 
A    8
 C6 
A    9
 C7 
A   10
 C8 
A   11
 C9 
A   12
 C10
A   13
 C11
A   14
 C12
A   15
 C13
A   16
 N3 
A   17
 C14
A   18
 O1 
A   19
 C15
A   20
 C16
A   21
 O2 
A   22
 H1 
A   23
 H2 
A   24
 H3 
A   25
 H4 
A   26
 H5 
A   27
 H6 
A   28
 H7 
A   29
 H8 
A   30
 H9 
A   31
 H10
A   32
 H11
A   33
 H12
A   34
 H13
A   35
 H14
A   36
 H15
A   37
 H16
A   38
 H17
A   39
 H18
A   40
 H19
M  END
>  <ref_pdb>  (121) 
x0451_0A

>  <ref_mols>  (121) 
x0451_0A,x0554_0A,x0556_0A,x0566_0A,x0310_0A,x0416_0A

>  <original SMILES>  (121) 
CC(C)c1nn(-c2ccccc2)cc1CNC(=O)[C@@H]1CO1

>  <rationale>  (121) 
info info set:ROCS-cov2;Warhead 6.049317073852221Å to Cys110:SG; hbond:S87+S125; hydroph_interaction:A110+V124; 

>  <∆∆G>  (121) 
-8.139034

>  <comRMSD>  (121) 
0.579967

>  <ROCS_TanimotoCombo>  (121) 
0.541

>  <ROCS_ShapeTanimoto>  (121) 
0.354

>  <ROCS_ColorTanimoto>  (121) 
0.187

>  <distance>  (121) 
6.049317

$$$$
Z645758468
     RDKit          3D

 50 53  0  0  0  0  0  0  0  0999 V2000
   10.3750   15.3530   24.8070 C   0  0  0  0  0  0  0  0  0  0  0  0
    9.3920   15.4130   23.7760 O   0  0  0  0  0  0  0  0  0  0  0  0
    9.7410   15.7640   22.4940 C   0  0  0  0  0  0  0  0  0  0  0  0
    8.9040   16.7600   21.6400 C   0  0  0  0  0  0  0  0  0  0  0  0
    9.4760   17.0080   20.2580 C   0  0  0  0  0  0  0  0  0  0  0  0
   10.7080   16.3090   19.8240 C   0  0  0  0  0  0  0  0  0  0  0  0
   11.0950   16.5960   18.5570 C   0  0  0  0  0  0  0  0  0  0  0  0
   12.3300   15.8860   18.1310 C   0  0  0  0  0  0  0  0  0  0  0  0
   12.9450   15.0220   19.0620 C   0  0  0  0  0  0  0  0  0  0  0  0
   12.5080   14.7830   20.2790 C   0  0  0  0  0  0  0  0  0  0  0  0
   11.3490   15.4420   20.6900 C   0  0  0  0  0  0  0  0  0  0  0  0
   10.8830   15.1610   22.0260 C   0  0  0  0  0  0  0  0  0  0  0  0
   11.6330   14.2660   22.7650 C   0  0  0  0  0  0  0  0  0  0  0  0
   10.9780   12.9830   22.7230 N   0  0  0  0  0  0  0  0  0  0  0  0
   10.9640   12.2650   23.9440 C   0  0  0  0  0  0  0  0  0  0  0  0
   11.9150   12.2970   24.7180 O   0  0  0  0  0  0  0  0  0  0  0  0
    9.7150   11.4830   24.2960 C   0  0  0  0  0  0  0  0  0  0  0  0
    9.4830   10.1550   24.0600 C   0  0  0  0  0  0  0  0  0  0  0  0
   10.4060    9.3370   23.4030 C   0  0  0  0  0  0  0  0  0  0  0  0
    8.3240    9.6730   24.5000 N   0  0  0  0  0  0  0  0  0  0  0  0
    7.7590   10.8000   25.0680 N   0  0  0  0  0  0  0  0  0  0  0  0
    6.5390   10.9770   25.7540 C   0  0  0  0  0  0  0  0  0  0  0  0
    5.7800    9.9460   26.0510 C   0  0  0  0  0  0  0  0  0  0  0  0
    6.1370   12.1750   26.1750 C   0  0  0  0  0  0  0  0  0  0  0  0
    6.9280   13.2290   25.9670 C   0  0  0  0  0  0  0  0  0  0  0  0
    6.4270   14.5630   26.4360 C   0  0  0  0  0  0  0  0  0  0  0  0
    8.1860   13.1390   25.3690 N   0  0  0  0  0  0  0  0  0  0  0  0
    8.5760   11.9170   24.9220 C   0  0  0  0  0  0  0  0  0  0  0  0
    9.9040   15.6470   25.7490 H   0  0  0  0  0  0  0  0  0  0  0  0
   10.7770   14.3430   24.9290 H   0  0  0  0  0  0  0  0  0  0  0  0
   11.2010   16.0360   24.6280 H   0  0  0  0  0  0  0  0  0  0  0  0
    7.9980   17.2450   21.9790 H   0  0  0  0  0  0  0  0  0  0  0  0
    8.9750   17.7000   19.5700 H   0  0  0  0  0  0  0  0  0  0  0  0
   10.5590   17.2830   17.9080 H   0  0  0  0  0  0  0  0  0  0  0  0
   12.7150   16.0550   17.1610 H   0  0  0  0  0  0  0  0  0  0  0  0
   13.8060   14.5080   18.8410 H   0  0  0  0  0  0  0  0  0  0  0  0
   12.9980   14.1140   20.9490 H   0  0  0  0  0  0  0  0  0  0  0  0
   12.6150   14.1100   22.3120 H   0  0  0  0  0  0  0  0  0  0  0  0
   11.8770   14.5080   23.7910 H   0  0  0  0  0  0  0  0  0  0  0  0
   11.0860   12.4500   21.8590 H   0  0  0  0  0  0  0  0  0  0  0  0
    9.9670    8.3400   23.2880 H   0  0  0  0  0  0  0  0  0  0  0  0
   10.7550    9.6330   22.4170 H   0  0  0  0  0  0  0  0  0  0  0  0
   11.2980    9.2270   24.0270 H   0  0  0  0  0  0  0  0  0  0  0  0
    6.2480    9.1650   26.6000 H   0  0  0  0  0  0  0  0  0  0  0  0
    5.3440    9.5250   25.1830 H   0  0  0  0  0  0  0  0  0  0  0  0
    4.9410   10.2720   26.6740 H   0  0  0  0  0  0  0  0  0  0  0  0
    5.2080   12.3260   26.7060 H   0  0  0  0  0  0  0  0  0  0  0  0
    7.2740   15.2610   26.4880 H   0  0  0  0  0  0  0  0  0  0  0  0
    5.6720   14.9660   25.7550 H   0  0  0  0  0  0  0  0  0  0  0  0
    5.9850   14.4640   27.4310 H   0  0  0  0  0  0  0  0  0  0  0  0
  1  2  1  0
  2  3  1  0
  3  4  2  0
  4  5  1  0
  5  6  2  0
  6  7  1  0
  7  8  2  0
  8  9  1  0
  9 10  2  0
 10 11  1  0
 11 12  2  0
 12 13  1  0
 13 14  1  0
 14 15  1  0
 15 16  2  0
 15 17  1  0
 17 18  1  0
 18 19  1  0
 18 20  2  0
 20 21  1  0
 21 22  1  0
 22 23  1  0
 22 24  2  0
 24 25  1  0
 25 26  1  0
 25 27  2  0
 27 28  1  0
 12  3  1  0
 28 17  2  0
 11  6  1  0
 28 21  1  0
  1 29  1  0
  1 30  1  0
  1 31  1  0
  4 32  1  0
  5 33  1  0
  7 34  1  0
  8 35  1  0
  9 36  1  0
 10 37  1  0
 13 38  1  0
 13 39  1  0
 14 40  1  0
 19 41  1  0
 19 42  1  0
 19 43  1  0
 23 44  1  0
 23 45  1  0
 23 46  1  0
 24 47  1  0
 26 48  1  0
 26 49  1  0
 26 50  1  0
A    1
 C1 
A    2
 O1 
A    3
 C2 
A    4
 C3 
A    5
 C4 
A    6
 C5 
A    7
 C6 
A    8
 C7 
A    9
 C8 
A   10
 C9 
A   11
 C10
A   12
 C11
A   13
 C12
A   14
 N1 
A   15
 C13
A   16
 O2 
A   17
 C14
A   18
 C15
A   19
 C16
A   20
 N2 
A   21
 N3 
A   22
 C17
A   23
 C18
A   24
 C19
A   25
 C20
A   26
 C21
A   27
 N4 
A   28
 C22
A   29
 H1 
A   30
 H2 
A   31
 H3 
A   32
 H4 
A   33
 H5 
A   34
 H6 
A   35
 H7 
A   36
 H8 
A   37
 H9 
A   38
 H10
A   39
 H11
A   40
 H12
A   41
 H13
A   42
 H14
A   43
 H15
A   44
 H16
A   45
 H17
A   46
 H18
A   47
 H19
A   48
 H20
A   49
 H21
A   50
 H22
M  END
>  <ref_pdb>  (122) 
x0451_0A

>  <ref_mols>  (122) 
x0451_0A,x0554_0A,x0556_0A,x0566_0A,x0310_0A,x0416_0A

>  <original SMILES>  (122) 
COc1ccc2ccccc2c1CNC(=O)c1c(C)nn2c(C)cc(C)nc12

>  <rationale>  (122) 
info info set:ROCS-PPI;Warhead nanÅ to Cys110:SG; hbond:S87+S125; hydroph_interaction:Y90+V84+D39+T126; 

>  <∆∆G>  (122) 
-8.097449

>  <comRMSD>  (122) 
1.014745

>  <ROCS_TanimotoCombo>  (122) 
0.549

>  <ROCS_ShapeTanimoto>  (122) 
0.37

>  <ROCS_ColorTanimoto>  (122) 
0.18

>  <distance>  (122) 
nan

$$$$
Z391881394
     RDKit          3D

 28 28  0  0  0  0  0  0  0  0999 V2000
   10.2110    9.2690   23.0950 C   0  0  0  0  0  0  0  0  0  0  0  0
    9.2740   10.1330   23.8410 C   0  0  0  0  0  0  0  0  0  0  0  0
    8.2420    9.5180   24.5640 C   0  0  0  0  0  0  0  0  0  0  0  0
    7.2720   10.3550   25.3190 C   0  0  0  0  0  0  0  0  0  0  0  0
    7.3870   11.7390   25.3050 C   0  0  0  0  0  0  0  0  0  0  0  0
    6.2100   12.7530   26.1890 S   0  0  0  0  0  6  0  0  0  0  0  0
    6.9440   13.1160   27.7470 C   0  0  0  0  0  0  0  0  0  0  0  0
    6.1250   14.0290   25.5120 O   0  0  0  0  0  0  0  0  0  0  0  0
    5.0270   11.9650   26.4580 O   0  0  0  0  0  0  0  0  0  0  0  0
    8.4460   12.3160   24.5700 C   0  0  0  0  0  0  0  0  0  0  0  0
    9.3860   11.5480   23.8450 C   0  0  0  0  0  0  0  0  0  0  0  0
   10.4340   12.1540   23.1260 N   0  0  0  0  0  0  0  0  0  0  0  0
   10.8830   13.5090   23.4400 C   0  0  0  0  0  0  0  0  0  0  0  0
   10.5000   14.2130   24.3700 O   0  0  0  0  0  0  0  0  0  0  0  0
   11.9260   14.0110   22.4800 C   0  0  0  0  0  0  0  0  0  0  0  0
   11.4240   15.4870   21.6100 Cl  0  0  0  0  0  0  0  0  0  0  0  0
   10.7950    9.8490   22.3750 H   0  0  0  0  0  0  0  0  0  0  0  0
   10.9050    8.7720   23.7810 H   0  0  0  0  0  0  0  0  0  0  0  0
    9.6580    8.5050   22.5440 H   0  0  0  0  0  0  0  0  0  0  0  0
    8.1500    8.4370   24.5740 H   0  0  0  0  0  0  0  0  0  0  0  0
    6.5020    9.7850   25.8500 H   0  0  0  0  0  0  0  0  0  0  0  0
    6.9130   12.2170   28.3510 H   0  0  0  0  0  0  0  0  0  0  0  0
    6.3750   13.9080   28.2390 H   0  0  0  0  0  0  0  0  0  0  0  0
    7.9730   13.4500   27.5890 H   0  0  0  0  0  0  0  0  0  0  0  0
    8.5990   13.4000   24.5160 H   0  0  0  0  0  0  0  0  0  0  0  0
   10.6620   11.8310   22.1760 H   0  0  0  0  0  0  0  0  0  0  0  0
   12.8390   14.2480   23.0300 H   0  0  0  0  0  0  0  0  0  0  0  0
   12.1400   13.2390   21.7450 H   0  0  0  0  0  0  0  0  0  0  0  0
  1  2  1  0
  2  3  2  0
  3  4  1  0
  4  5  2  0
  5  6  1  0
  6  7  1  0
  6  8  2  0
  6  9  2  0
  5 10  1  0
 10 11  2  0
 11 12  1  0
 12 13  1  0
 13 14  2  0
 13 15  1  0
 15 16  1  0
 11  2  1  0
  1 17  1  0
  1 18  1  0
  1 19  1  0
  3 20  1  0
  4 21  1  0
  7 22  1  0
  7 23  1  0
  7 24  1  0
 10 25  1  0
 12 26  1  0
 15 27  1  0
 15 28  1  0
A    1
 C1 
A    2
 C2 
A    3
 C3 
A    4
 C4 
A    5
 C5 
A    6
 S1 
A    7
 C6 
A    8
 O1 
A    9
 O2 
A   10
 C7 
A   11
 C8 
A   12
 N1 
A   13
 C9 
A   14
 O3 
A   15
 C10
A   16
CL1 
A   17
 H1 
A   18
 H2 
A   19
 H3 
A   20
 H4 
A   21
 H5 
A   22
 H6 
A   23
 H7 
A   24
 H8 
A   25
 H9 
A   26
 H10
A   27
 H11
A   28
 H12
M  END
>  <ref_pdb>  (123) 
x0451_0A

>  <ref_mols>  (123) 
x0451_0A,x0554_0A,x0556_0A,x0566_0A,x0310_0A,x0416_0A

>  <original SMILES>  (123) 
Cc1ccc(S(C)(=O)=O)cc1NC(=O)CCl

>  <rationale>  (123) 
info info set:ROCS-electro;Warhead 4.234592331027864Å to Cys110:SG; hbond:S125; hydroph_interaction:V124; 

>  <∆∆G>  (123) 
-8.095141

>  <comRMSD>  (123) 
0.315037

>  <ROCS_TanimotoCombo>  (123) 
0.444

>  <ROCS_ShapeTanimoto>  (123) 
0.306

>  <ROCS_ColorTanimoto>  (123) 
0.138

>  <distance>  (123) 
4.234592

$$$$
Z111869264
     RDKit          3D

 29 29  0  0  0  0  0  0  0  0999 V2000
    6.3200    9.9200   26.0690 C   0  0  0  0  0  0  0  0  0  0  0  0
    7.5020   10.3980   25.2620 C   0  0  0  0  0  0  0  0  0  0  0  0
    8.3770    9.3540   24.5310 C   0  0  0  0  0  0  0  0  0  0  0  0
    9.5470    9.9100   23.7310 C   0  0  0  0  0  0  0  0  0  0  0  0
    9.6760   11.4220   23.7830 C   0  0  0  0  0  0  0  0  0  0  0  0
   10.7540   11.9730   23.0660 N   0  0  0  0  0  0  0  0  0  0  0  0
   11.0720   13.2960   23.3060 C   0  0  0  0  0  0  0  0  0  0  0  0
   10.7600   13.9120   24.3300 O   0  0  0  0  0  0  0  0  0  0  0  0
   11.7660   13.8040   22.2440 N   0  0  0  0  0  0  0  0  0  0  0  0
   11.7270   15.1460   21.9980 C   0  0  0  0  0  0  0  0  0  0  0  0
   11.3200   15.9850   22.8100 O   0  0  0  0  0  0  0  0  0  0  0  0
   12.1590   15.5830   20.7540 C   0  0  0  0  0  0  0  0  0  0  0  0
   11.9250   14.4610   19.4060 Cl  0  0  0  0  0  0  0  0  0  0  0  0
    8.8090   12.2560   24.4890 C   0  0  0  0  0  0  0  0  0  0  0  0
    7.7430   11.7440   25.2150 C   0  0  0  0  0  0  0  0  0  0  0  0
    6.8540   12.7090   25.9530 C   0  0  0  0  0  0  0  0  0  0  0  0
    5.5780    9.4690   25.4330 H   0  0  0  0  0  0  0  0  0  0  0  0
    5.8280   10.7490   26.5860 H   0  0  0  0  0  0  0  0  0  0  0  0
    6.6210    9.2180   26.8100 H   0  0  0  0  0  0  0  0  0  0  0  0
    8.1900    8.2830   24.5720 H   0  0  0  0  0  0  0  0  0  0  0  0
   10.2380    9.2870   23.1690 H   0  0  0  0  0  0  0  0  0  0  0  0
   10.8700   11.6710   22.0990 H   0  0  0  0  0  0  0  0  0  0  0  0
   11.7300   13.1870   21.4260 H   0  0  0  0  0  0  0  0  0  0  0  0
   13.2210   15.8550   20.8120 H   0  0  0  0  0  0  0  0  0  0  0  0
   11.5360   16.4450   20.5210 H   0  0  0  0  0  0  0  0  0  0  0  0
    8.9620   13.3310   24.4790 H   0  0  0  0  0  0  0  0  0  0  0  0
    5.7990   12.4500   25.7920 H   0  0  0  0  0  0  0  0  0  0  0  0
    6.9970   13.7400   25.6110 H   0  0  0  0  0  0  0  0  0  0  0  0
    7.0320   12.6740   27.0340 H   0  0  0  0  0  0  0  0  0  0  0  0
  1  2  1  0
  2  3  2  0
  3  4  1  0
  4  5  2  0
  5  6  1  0
  6  7  1  0
  7  8  2  0
  7  9  1  0
  9 10  1  0
 10 11  2  0
 10 12  1  0
 12 13  1  0
  5 14  1  0
 14 15  2  0
 15 16  1  0
 15  2  1  0
  1 17  1  0
  1 18  1  0
  1 19  1  0
  3 20  1  0
  4 21  1  0
  6 22  1  0
  9 23  1  0
 12 24  1  0
 12 25  1  0
 14 26  1  0
 16 27  1  0
 16 28  1  0
 16 29  1  0
A    1
 C1 
A    2
 C2 
A    3
 C3 
A    4
 C4 
A    5
 C5 
A    6
 N1 
A    7
 C6 
A    8
 O1 
A    9
 N2 
A   10
 C7 
A   11
 O2 
A   12
 C8 
A   13
CL1 
A   14
 C9 
A   15
 C10
A   16
 C11
A   17
 H1 
A   18
 H2 
A   19
 H3 
A   20
 H4 
A   21
 H5 
A   22
 H6 
A   23
 H7 
A   24
 H8 
A   25
 H9 
A   26
 H10
A   27
 H11
A   28
 H12
A   29
 H13
M  END
>  <ref_pdb>  (124) 
x0451_0A

>  <ref_mols>  (124) 
x0451_0A,x0554_0A,x0556_0A,x0566_0A,x0310_0A,x0416_0A

>  <original SMILES>  (124) 
Cc1ccc(NC(=O)NC(=O)CCl)cc1C

>  <rationale>  (124) 
info info set:ROCS-electro;Warhead 5.8665624227480935Å to Cys110:SG; halogenbond:S125; hbond:S87+S125; 

>  <∆∆G>  (124) 
-8.077618

>  <comRMSD>  (124) 
0.621614

>  <ROCS_TanimotoCombo>  (124) 
0.485

>  <ROCS_ShapeTanimoto>  (124) 
0.3

>  <ROCS_ColorTanimoto>  (124) 
0.185

>  <distance>  (124) 
5.866562

$$$$
Z561567082
     RDKit          3D

 31 31  0  0  0  0  0  0  0  0999 V2000
    6.2450   11.0070   25.9750 C   0  0  0  0  0  0  0  0  0  0  0  0
    7.4650   11.0000   25.1180 C   0  0  0  0  0  0  0  0  0  0  0  0
    8.1380   12.0820   24.5710 C   0  0  0  0  0  0  0  0  0  0  0  0
    9.2440   11.6820   23.8440 C   0  0  0  0  0  0  0  0  0  0  0  0
   10.2500   12.3380   23.1210 N   0  0  0  0  0  0  0  0  0  0  0  0
   10.6030   13.7510   23.2640 C   0  0  0  0  0  0  0  0  0  0  0  0
   10.7960   14.3480   24.3190 O   0  0  0  0  0  0  0  0  0  0  0  0
   10.7150   14.4330   22.0450 C   0  0  0  0  0  0  0  0  0  0  0  0
   12.2350   15.3210   21.8380 Cl  0  0  0  0  0  0  0  0  0  0  0  0
    9.1310   10.3080   24.0190 N   0  0  0  0  0  0  0  0  0  0  0  0
    9.9210    9.3400   23.5720 C   0  0  0  0  0  0  0  0  0  0  0  0
   10.5480    9.4800   22.2810 C   0  0  0  0  0  0  0  0  0  0  0  0
   11.1290    9.3640   24.4720 C   0  0  0  0  0  0  0  0  0  0  0  0
    9.2160    8.0040   23.4760 C   0  0  0  0  0  0  0  0  0  0  0  0
    8.0810    9.8920   24.7680 N   0  0  0  0  0  0  0  0  0  0  0  0
    5.6540   11.9130   25.8200 H   0  0  0  0  0  0  0  0  0  0  0  0
    6.5340   10.9470   27.0300 H   0  0  0  0  0  0  0  0  0  0  0  0
    5.6000   10.1500   25.7450 H   0  0  0  0  0  0  0  0  0  0  0  0
    7.8480   13.1210   24.6970 H   0  0  0  0  0  0  0  0  0  0  0  0
   10.5920   11.9190   22.2340 H   0  0  0  0  0  0  0  0  0  0  0  0
   10.6370   13.7160   21.2260 H   0  0  0  0  0  0  0  0  0  0  0  0
    9.8960   15.1530   21.9700 H   0  0  0  0  0  0  0  0  0  0  0  0
    9.9340    9.1020   21.4840 H   0  0  0  0  0  0  0  0  0  0  0  0
   11.4480    8.9060   22.2970 H   0  0  0  0  0  0  0  0  0  0  0  0
   10.7510   10.5320   22.1650 H   0  0  0  0  0  0  0  0  0  0  0  0
   11.4020    8.3850   24.7550 H   0  0  0  0  0  0  0  0  0  0  0  0
   10.8890    9.9050   25.3660 H   0  0  0  0  0  0  0  0  0  0  0  0
   11.9830    9.8520   24.0050 H   0  0  0  0  0  0  0  0  0  0  0  0
    8.8680    7.6710   24.4620 H   0  0  0  0  0  0  0  0  0  0  0  0
    9.8370    7.2270   23.0620 H   0  0  0  0  0  0  0  0  0  0  0  0
    8.3440    8.0720   22.8270 H   0  0  0  0  0  0  0  0  0  0  0  0
  1  2  1  0
  2  3  1  0
  3  4  2  0
  4  5  1  0
  5  6  1  0
  6  7  2  0
  6  8  1  0
  8  9  1  0
  4 10  1  0
 10 11  1  0
 11 12  1  0
 11 13  1  0
 11 14  1  0
 10 15  1  0
 15  2  2  0
  1 16  1  0
  1 17  1  0
  1 18  1  0
  3 19  1  0
  5 20  1  0
  8 21  1  0
  8 22  1  0
 12 23  1  0
 12 24  1  0
 12 25  1  0
 13 26  1  0
 13 27  1  0
 13 28  1  0
 14 29  1  0
 14 30  1  0
 14 31  1  0
A    1
 C1 
A    2
 C2 
A    3
 C3 
A    4
 C4 
A    5
 N1 
A    6
 C5 
A    7
 O1 
A    8
 C6 
A    9
CL1 
A   10
 N2 
A   11
 C7 
A   12
 C8 
A   13
 C9 
A   14
 C10
A   15
 N3 
A   16
 H1 
A   17
 H2 
A   18
 H3 
A   19
 H4 
A   20
 H5 
A   21
 H6 
A   22
 H7 
A   23
 H8 
A   24
 H9 
A   25
 H10
A   26
 H11
A   27
 H12
A   28
 H13
A   29
 H14
A   30
 H15
A   31
 H16
M  END
>  <ref_pdb>  (125) 
x0451_0A

>  <ref_mols>  (125) 
x0451_0A,x0554_0A,x0556_0A,x0566_0A,x0310_0A,x0416_0A

>  <original SMILES>  (125) 
Cc1cc(NC(=O)CCl)n(C(C)(C)C)n1

>  <rationale>  (125) 
info info set:ROCS-electro;Warhead 4.960550475501685Å to Cys110:SG; hbond:S125; 

>  <∆∆G>  (125) 
-8.074455

>  <comRMSD>  (125) 
0.588276

>  <ROCS_TanimotoCombo>  (125) 
0.456

>  <ROCS_ShapeTanimoto>  (125) 
0.288

>  <ROCS_ColorTanimoto>  (125) 
0.168

>  <distance>  (125) 
4.96055

$$$$
Z2417925967
     RDKit          3D

 45 46  0  0  0  0  0  0  0  0999 V2000
   10.8710    9.2290   23.1890 C   0  0  0  0  0  0  0  0  0  0  0  0
    9.7150   10.1550   23.4230 C   0  0  2  0  0  0  0  0  0  0  0  0
   10.2350   11.3230   23.8700 C   0  0  0  0  0  0  0  0  0  0  0  0
    9.0980   12.3330   24.0480 C   0  0  2  0  0  0  0  0  0  0  0  0
    9.6500   13.6700   24.3850 N   0  0  0  0  0  0  0  0  0  0  0  0
   10.1120   13.8520   25.7610 C   0  0  0  0  0  0  0  0  0  0  0  0
   10.2160   14.5620   23.4470 C   0  0  0  0  0  0  0  0  0  0  0  0
   10.8620   15.5400   23.8050 O   0  0  0  0  0  0  0  0  0  0  0  0
   10.0270   14.3110   21.9640 C   0  0  0  0  0  0  0  0  0  0  0  0
   10.6960   15.3300   21.0540 C   0  0  0  0  0  0  0  0  0  0  0  0
   10.0740   16.6600   20.9760 N   0  0  0  0  0  0  0  0  0  0  0  0
   10.6660   14.6960   19.6810 C   0  0  0  0  0  0  0  0  0  0  0  0
   12.1490   14.9770   19.4910 C   0  0  0  0  0  0  0  0  0  0  0  0
   12.2360   15.3750   20.9780 C   0  0  0  0  0  0  0  0  0  0  0  0
    8.0330   11.8080   25.0340 C   0  0  0  0  0  0  0  0  0  0  0  0
    7.7890   10.2960   24.9290 C   0  0  0  0  0  0  0  0  0  0  0  0
    8.9460    9.5200   24.4610 N   0  0  0  0  0  0  0  0  0  0  0  0
    8.6280    8.2060   23.9130 C   0  0  0  0  0  0  0  0  0  0  0  0
   10.5920    8.1990   23.3990 H   0  0  0  0  0  0  0  0  0  0  0  0
   11.1610    9.3030   22.1430 H   0  0  0  0  0  0  0  0  0  0  0  0
   11.7040    9.5200   23.8290 H   0  0  0  0  0  0  0  0  0  0  0  0
    9.1490   10.0000   22.5640 H   0  0  0  0  0  0  0  0  0  0  0  0
   10.7770   11.1560   24.8080 H   0  0  0  0  0  0  0  0  0  0  0  0
   10.9710   11.7140   23.1550 H   0  0  0  0  0  0  0  0  0  0  0  0
    8.5770   12.4170   23.0920 H   0  0  0  0  0  0  0  0  0  0  0  0
   10.6500   12.9540   26.0780 H   0  0  0  0  0  0  0  0  0  0  0  0
    9.2720   14.0350   26.4310 H   0  0  0  0  0  0  0  0  0  0  0  0
   10.7900   14.7070   25.8420 H   0  0  0  0  0  0  0  0  0  0  0  0
   10.4740   13.3360   21.7560 H   0  0  0  0  0  0  0  0  0  0  0  0
    8.9560   14.2680   21.7490 H   0  0  0  0  0  0  0  0  0  0  0  0
    9.0530   16.6000   21.0590 H   0  0  0  0  0  0  0  0  0  0  0  0
   10.3550   17.3130   21.7060 H   0  0  0  0  0  0  0  0  0  0  0  0
   10.4380   13.6450   19.6420 H   0  0  0  0  0  0  0  0  0  0  0  0
   10.0340   15.2180   18.9520 H   0  0  0  0  0  0  0  0  0  0  0  0
   12.3360   15.7780   18.7800 H   0  0  0  0  0  0  0  0  0  0  0  0
   12.7320   14.1090   19.1920 H   0  0  0  0  0  0  0  0  0  0  0  0
   12.7120   14.6030   21.5930 H   0  0  0  0  0  0  0  0  0  0  0  0
   12.7340   16.3150   21.1970 H   0  0  0  0  0  0  0  0  0  0  0  0
    7.0870   12.3530   24.9270 H   0  0  0  0  0  0  0  0  0  0  0  0
    8.3710   12.0220   26.0570 H   0  0  0  0  0  0  0  0  0  0  0  0
    6.9210   10.0970   24.3160 H   0  0  0  0  0  0  0  0  0  0  0  0
    7.5170    9.9090   25.9210 H   0  0  0  0  0  0  0  0  0  0  0  0
    7.8340    8.2380   23.1770 H   0  0  0  0  0  0  0  0  0  0  0  0
    8.3840    7.4910   24.6930 H   0  0  0  0  0  0  0  0  0  0  0  0
    9.5010    7.7900   23.4060 H   0  0  0  0  0  0  0  0  0  0  0  0
  1  2  1  0
  2  3  1  0
  3  4  1  0
  4  5  1  0
  5  6  1  0
  5  7  1  0
  7  8  2  0
  7  9  1  0
  9 10  1  0
 10 11  1  0
 10 12  1  0
 12 13  1  0
 13 14  1  0
  4 15  1  0
 15 16  1  0
 16 17  1  0
 17 18  1  0
 17  2  1  0
 14 10  1  0
  1 19  1  0
  1 20  1  0
  1 21  1  0
  2 22  1  6
  3 23  1  0
  3 24  1  0
  4 25  1  6
  6 26  1  0
  6 27  1  0
  6 28  1  0
  9 29  1  0
  9 30  1  0
 11 31  1  0
 11 32  1  0
 12 33  1  0
 12 34  1  0
 13 35  1  0
 13 36  1  0
 14 37  1  0
 14 38  1  0
 15 39  1  0
 15 40  1  0
 16 41  1  0
 16 42  1  0
 18 43  1  0
 18 44  1  0
 18 45  1  0
A    1
 C1 
A    2
 C2 
A    3
 C3 
A    4
 C4 
A    5
 N1 
A    6
 C5 
A    7
 C6 
A    8
 O1 
A    9
 C7 
A   10
 C8 
A   11
 N2 
A   12
 C9 
A   13
 C10
A   14
 C11
A   15
 C12
A   16
 C13
A   17
 N3 
A   18
 C14
A   19
 H1 
A   20
 H2 
A   21
 H3 
A   22
 H4 
A   23
 H5 
A   24
 H6 
A   25
 H7 
A   26
 H8 
A   27
 H9 
A   28
 H10
A   29
 H11
A   30
 H12
A   31
 H13
A   32
 H14
A   33
 H15
A   34
 H16
A   35
 H17
A   36
 H18
A   37
 H19
A   38
 H20
A   39
 H21
A   40
 H22
A   41
 H23
A   42
 H24
A   43
 H25
A   44
 H26
A   45
 H27
M  END
>  <ref_pdb>  (126) 
x0451_0A

>  <ref_mols>  (126) 
x0451_0A,x0554_0A,x0556_0A,x0566_0A,x0310_0A,x0416_0A

>  <original SMILES>  (126) 
C[C@@H]1C[C@H](N(C)C(=O)CC2(N)CCC2)CCN1C

>  <rationale>  (126) 
info info set:ROCS-shape_Q1;Warhead nanÅ to Cys110:SG; hbond:S87; hydroph_interaction:Y90+A110+V124; 

>  <∆∆G>  (126) 
-8.066201

>  <comRMSD>  (126) 
0.567482

>  <ROCS_TanimotoCombo>  (126) 
0.429

>  <ROCS_ShapeTanimoto>  (126) 
0.28

>  <ROCS_ColorTanimoto>  (126) 
0.149

>  <distance>  (126) 
nan

$$$$
EN300_319680
     RDKit          3D

 34 35  0  0  0  0  0  0  0  0999 V2000
    9.7380    8.5750   23.4460 C   0  0  0  0  0  0  0  0  0  0  0  0
    9.6240   10.0590   23.6930 C   0  0  0  0  0  0  0  0  0  0  0  0
   10.5530   10.8720   23.1920 N   0  0  0  0  0  0  0  0  0  0  0  0
   10.0630   12.2480   23.6530 N   0  0  0  0  0  0  0  0  0  0  0  0
   10.8120   13.3530   23.3020 C   0  0  0  0  0  0  0  0  0  0  0  0
   10.9970   14.2590   24.1150 O   0  0  0  0  0  0  0  0  0  0  0  0
   11.2630   13.2910   22.0230 O   0  0  0  0  0  0  0  0  0  0  0  0
   11.3230   14.4940   21.2080 C   0  0  0  0  0  0  0  0  0  0  0  0
   11.8410   14.3230   19.7870 C   0  0  0  0  0  0  0  0  0  0  0  0
   12.3270   15.3570   21.9340 C   0  0  0  0  0  0  0  0  0  0  0  0
    9.9770   15.2030   21.2100 C   0  0  0  0  0  0  0  0  0  0  0  0
    8.8950   12.1200   24.3760 C   0  0  0  0  0  0  0  0  0  0  0  0
    8.1790   13.1390   24.9280 N   0  0  0  0  0  0  0  0  0  0  0  0
    7.0760   12.7890   25.6000 C   0  0  0  0  0  0  0  0  0  0  0  0
    6.3590   13.8150   26.1380 O   0  0  0  0  0  0  0  0  0  0  0  0
    6.6420   11.5140   25.7700 C   0  0  0  0  0  0  0  0  0  0  0  0
    7.3690   10.3360   25.1950 C   0  0  0  0  0  0  0  0  0  0  0  0
    6.8920    9.1280   25.4050 O   0  0  0  0  0  0  0  0  0  0  0  0
    8.6060   10.7450   24.4270 C   0  0  0  0  0  0  0  0  0  0  0  0
    9.4050    8.3260   22.4350 H   0  0  0  0  0  0  0  0  0  0  0  0
    9.1530    8.0000   24.1700 H   0  0  0  0  0  0  0  0  0  0  0  0
   10.7760    8.2510   23.5320 H   0  0  0  0  0  0  0  0  0  0  0  0
   12.4890   13.4610   19.6660 H   0  0  0  0  0  0  0  0  0  0  0  0
   12.3870   15.2120   19.4550 H   0  0  0  0  0  0  0  0  0  0  0  0
   11.0010   14.1910   19.0950 H   0  0  0  0  0  0  0  0  0  0  0  0
   13.0620   15.7880   21.2590 H   0  0  0  0  0  0  0  0  0  0  0  0
   12.8550   14.7600   22.6870 H   0  0  0  0  0  0  0  0  0  0  0  0
   11.8110   16.1660   22.4570 H   0  0  0  0  0  0  0  0  0  0  0  0
    9.6020   15.3700   20.1930 H   0  0  0  0  0  0  0  0  0  0  0  0
    9.2200   14.6280   21.7510 H   0  0  0  0  0  0  0  0  0  0  0  0
   10.0500   16.1840   21.6880 H   0  0  0  0  0  0  0  0  0  0  0  0
    5.5120   13.8660   25.6660 H   0  0  0  0  0  0  0  0  0  0  0  0
    5.7430   11.2670   26.3280 H   0  0  0  0  0  0  0  0  0  0  0  0
    7.5470    8.6290   25.9210 H   0  0  0  0  0  0  0  0  0  0  0  0
  1  2  1  0
  2  3  2  0
  3  4  1  0
  4  5  1  0
  5  6  2  0
  5  7  1  0
  7  8  1  0
  8  9  1  0
  8 10  1  0
  8 11  1  0
  4 12  1  0
 12 13  2  0
 13 14  1  0
 14 15  1  0
 14 16  2  0
 16 17  1  0
 17 18  1  0
 17 19  2  0
 19  2  1  0
 19 12  1  0
  1 20  1  0
  1 21  1  0
  1 22  1  0
  9 23  1  0
  9 24  1  0
  9 25  1  0
 10 26  1  0
 10 27  1  0
 10 28  1  0
 11 29  1  0
 11 30  1  0
 11 31  1  0
 15 32  1  0
 16 33  1  0
 18 34  1  0
A    1
 C1 
A    2
 C2 
A    3
 N1 
A    4
 N2 
A    5
 C3 
A    6
 O1 
A    7
 O2 
A    8
 C4 
A    9
 C5 
A   10
 C6 
A   11
 C7 
A   12
 C8 
A   13
 N3 
A   14
 C9 
A   15
 O3 
A   16
 C10
A   17
 C11
A   18
 O4 
A   19
 C12
A   20
 H1 
A   21
 H2 
A   22
 H3 
A   23
 H4 
A   24
 H5 
A   25
 H6 
A   26
 H7 
A   27
 H8 
A   28
 H9 
A   29
 H10
A   30
 H11
A   31
 H12
A   32
 H13
A   33
 H14
A   34
 H15
M  END
>  <ref_pdb>  (127) 
x0451_0A

>  <ref_mols>  (127) 
x0451_0A,x0554_0A,x0556_0A,x0566_0A,x0310_0A,x0416_0A

>  <original SMILES>  (127) 
Cc1nn(C(=O)OC(C)(C)C)c2nc(O)cc(O)c12

>  <rationale>  (127) 
info info set:ROCS-BB-0RB;Warhead nanÅ to Cys110:SG; hbond:E106; hydroph_interaction:Y89+V124+D109; 

>  <∆∆G>  (127) 
-8.053279

>  <comRMSD>  (127) 
0.550277

>  <ROCS_TanimotoCombo>  (127) 
0.527

>  <ROCS_ShapeTanimoto>  (127) 
0.37

>  <ROCS_ColorTanimoto>  (127) 
0.157

>  <distance>  (127) 
nan

$$$$
EN300_28283155
     RDKit          3D

 35 36  0  0  0  0  0  0  0  0999 V2000
   11.8610   16.0080   21.7580 C   0  0  0  0  0  0  0  0  0  0  0  0
   11.6200   14.8180   21.2580 C   0  0  0  0  0  0  0  0  0  0  0  0
   12.2820   14.5700   19.9870 C   0  0  0  0  0  0  0  0  0  0  0  0
   10.1400   14.7420   20.9140 C   0  0  0  0  0  0  0  0  0  0  0  0
   11.9300   13.8850   21.9770 O   0  0  0  0  0  0  0  0  0  0  0  0
   11.2560   13.7220   23.1330 C   0  0  0  0  0  0  0  0  0  0  0  0
   11.3420   14.4220   24.1270 O   0  0  0  0  0  0  0  0  0  0  0  0
   10.4700   12.6500   22.9510 N   0  0  0  0  0  0  0  0  0  0  0  0
    9.3930   12.2210   23.7320 C   0  0  0  0  0  0  0  0  0  0  0  0
    8.5160   13.1000   24.3540 C   0  0  0  0  0  0  0  0  0  0  0  0
    7.4050   12.5200   25.1730 C   0  0  0  0  0  0  0  0  0  0  0  0
    6.3840   13.3850   25.8860 C   0  0  0  0  0  0  0  0  0  0  0  0
    5.5690   14.0260   26.4100 N   0  0  0  0  0  0  0  0  0  0  0  0
    7.2600   11.2070   25.3150 N   0  0  0  0  0  0  0  0  0  0  0  0
    8.1330   10.4260   24.6860 C   0  0  0  0  0  0  0  0  0  0  0  0
    7.8920    8.9970   24.8910 C   0  0  0  0  0  0  0  0  0  0  0  0
    8.7290    8.0510   24.2640 C   0  0  0  0  0  0  0  0  0  0  0  0
    9.8590    8.5380   23.4140 C   0  0  0  0  0  0  0  0  0  0  0  0
   10.0650    9.8820   23.2550 C   0  0  0  0  0  0  0  0  0  0  0  0
    9.2150   10.8410   23.8780 C   0  0  0  0  0  0  0  0  0  0  0  0
   11.5840   16.0330   22.8100 H   0  0  0  0  0  0  0  0  0  0  0  0
   12.9260   16.1990   21.6510 H   0  0  0  0  0  0  0  0  0  0  0  0
   11.2950   16.7660   21.2200 H   0  0  0  0  0  0  0  0  0  0  0  0
   12.6380   13.5980   19.6990 H   0  0  0  0  0  0  0  0  0  0  0  0
   11.7430   14.9140   19.1050 H   0  0  0  0  0  0  0  0  0  0  0  0
   13.1860   15.1790   20.0120 H   0  0  0  0  0  0  0  0  0  0  0  0
    9.6150   13.9660   21.4760 H   0  0  0  0  0  0  0  0  0  0  0  0
    9.9960   14.5430   19.8490 H   0  0  0  0  0  0  0  0  0  0  0  0
    9.6340   15.6870   21.1390 H   0  0  0  0  0  0  0  0  0  0  0  0
   10.6970   12.1770   22.0750 H   0  0  0  0  0  0  0  0  0  0  0  0
    8.6310   14.1750   24.2490 H   0  0  0  0  0  0  0  0  0  0  0  0
    7.0400    8.7960   25.5380 H   0  0  0  0  0  0  0  0  0  0  0  0
    8.5740    6.9750   24.3860 H   0  0  0  0  0  0  0  0  0  0  0  0
   10.4650    7.7550   22.9670 H   0  0  0  0  0  0  0  0  0  0  0  0
   10.9010   10.1830   22.6310 H   0  0  0  0  0  0  0  0  0  0  0  0
  1  2  1  0
  2  3  1  0
  2  4  1  0
  2  5  1  0
  5  6  1  0
  6  7  2  0
  6  8  1  0
  8  9  1  0
  9 10  2  0
 10 11  1  0
 11 12  1  0
 12 13  3  0
 11 14  2  0
 14 15  1  0
 15 16  2  0
 16 17  1  0
 17 18  2  0
 18 19  1  0
 19 20  2  0
 20  9  1  0
 20 15  1  0
  1 21  1  0
  1 22  1  0
  1 23  1  0
  3 24  1  0
  3 25  1  0
  3 26  1  0
  4 27  1  0
  4 28  1  0
  4 29  1  0
  8 30  1  0
 10 31  1  0
 16 32  1  0
 17 33  1  0
 18 34  1  0
 19 35  1  0
A    1
 C1 
A    2
 C2 
A    3
 C3 
A    4
 C4 
A    5
 O1 
A    6
 C5 
A    7
 O2 
A    8
 N1 
A    9
 C6 
A   10
 C7 
A   11
 C8 
A   12
 C9 
A   13
 N2 
A   14
 N3 
A   15
 C10
A   16
 C11
A   17
 C12
A   18
 C13
A   19
 C14
A   20
 C15
A   21
 H1 
A   22
 H2 
A   23
 H3 
A   24
 H4 
A   25
 H5 
A   26
 H6 
A   27
 H7 
A   28
 H8 
A   29
 H9 
A   30
 H10
A   31
 H11
A   32
 H12
A   33
 H13
A   34
 H14
A   35
 H15
M  END
>  <ref_pdb>  (128) 
x0451_0A

>  <ref_mols>  (128) 
x0451_0A,x0554_0A,x0556_0A,x0566_0A,x0310_0A,x0416_0A

>  <original SMILES>  (128) 
CC(C)(C)OC(=O)Nc1cc(C#N)nc2ccccc12

>  <rationale>  (128) 
info info set:ROCS-BB-1RB;Warhead nanÅ to Cys110:SG; hbond:S125; hydroph_interaction:Y89+Y90+V124+D109; 

>  <∆∆G>  (128) 
-8.048035

>  <comRMSD>  (128) 
0.548142

>  <ROCS_TanimotoCombo>  (128) 
0.531

>  <ROCS_ShapeTanimoto>  (128) 
0.368

>  <ROCS_ColorTanimoto>  (128) 
0.163

>  <distance>  (128) 
nan

$$$$
Z803329894
     RDKit          3D

 36 37  0  0  0  0  0  0  0  0999 V2000
   12.1870   15.4910   21.4380 C   0  0  0  0  0  0  0  0  0  0  0  0
   10.8930   14.6960   21.2940 C   0  0  0  0  0  0  0  0  0  0  0  0
   10.8760   13.5390   22.1600 N   0  0  0  0  0  0  0  0  0  0  0  0
   10.8250   13.6560   23.5430 C   0  0  0  0  0  0  0  0  0  0  0  0
   10.5830   14.7330   24.0780 O   0  0  0  0  0  0  0  0  0  0  0  0
   11.0590   12.5070   24.2850 C   0  0  0  0  0  0  0  0  0  0  0  0
    9.8700   11.7320   24.4400 C   0  0  0  0  0  0  0  0  0  0  0  0
    9.7840   10.5010   23.7830 C   0  0  0  0  0  0  0  0  0  0  0  0
    8.6470    9.6790   23.8970 C   0  0  0  0  0  0  0  0  0  0  0  0
    7.4780   10.1550   24.7600 C   0  0  0  0  0  0  0  0  0  0  0  0
    7.5380   11.3550   25.4070 C   0  0  0  0  0  0  0  0  0  0  0  0
    6.2430   11.9220   26.3850 Cl  0  0  0  0  0  0  0  0  0  0  0  0
    8.8130   12.1950   25.2360 C   0  0  0  0  0  0  0  0  0  0  0  0
   11.6130   13.0690   25.6600 C   0  0  0  0  0  0  0  0  0  0  0  0
   12.9170   12.5170   26.2660 C   0  0  0  0  0  0  0  0  0  0  0  0
   13.5300   11.5390   25.4840 O   0  0  0  0  0  0  0  0  0  0  0  0
   13.4840   12.0470   24.1760 C   0  0  0  0  0  0  0  0  0  0  0  0
   12.1390   11.6890   23.5990 C   0  0  0  0  0  0  0  0  0  0  0  0
   11.9750   16.5120   21.7640 H   0  0  0  0  0  0  0  0  0  0  0  0
   12.7330   15.5280   20.4910 H   0  0  0  0  0  0  0  0  0  0  0  0
   12.8290   15.0200   22.1930 H   0  0  0  0  0  0  0  0  0  0  0  0
   10.0270   15.3160   21.5480 H   0  0  0  0  0  0  0  0  0  0  0  0
   10.8030   14.3700   20.2490 H   0  0  0  0  0  0  0  0  0  0  0  0
   11.0550   12.6360   21.7200 H   0  0  0  0  0  0  0  0  0  0  0  0
   10.6070   10.1420   23.1610 H   0  0  0  0  0  0  0  0  0  0  0  0
    8.6010    8.7250   23.3790 H   0  0  0  0  0  0  0  0  0  0  0  0
    6.6280    9.4850   24.8130 H   0  0  0  0  0  0  0  0  0  0  0  0
    8.8700   13.1520   25.7500 H   0  0  0  0  0  0  0  0  0  0  0  0
   11.7960   14.1470   25.5630 H   0  0  0  0  0  0  0  0  0  0  0  0
   10.8120   13.0280   26.4060 H   0  0  0  0  0  0  0  0  0  0  0  0
   12.7200   12.0960   27.2440 H   0  0  0  0  0  0  0  0  0  0  0  0
   13.6370   13.2970   26.4500 H   0  0  0  0  0  0  0  0  0  0  0  0
   14.3230   11.6590   23.6150 H   0  0  0  0  0  0  0  0  0  0  0  0
   13.6080   13.1340   24.2110 H   0  0  0  0  0  0  0  0  0  0  0  0
   11.9590   10.6150   23.7000 H   0  0  0  0  0  0  0  0  0  0  0  0
   12.1570   11.9100   22.5270 H   0  0  0  0  0  0  0  0  0  0  0  0
  1  2  1  0
  2  3  1  0
  3  4  1  0
  4  5  2  0
  4  6  1  0
  6  7  1  0
  7  8  2  0
  8  9  1  0
  9 10  2  0
 10 11  1  0
 11 12  1  0
 11 13  2  0
  6 14  1  0
 14 15  1  0
 15 16  1  0
 16 17  1  0
 17 18  1  0
 18  6  1  0
 13  7  1  0
  1 19  1  0
  1 20  1  0
  1 21  1  0
  2 22  1  0
  2 23  1  0
  3 24  1  0
  8 25  1  0
  9 26  1  0
 10 27  1  0
 13 28  1  0
 14 29  1  0
 14 30  1  0
 15 31  1  0
 15 32  1  0
 17 33  1  0
 17 34  1  0
 18 35  1  0
 18 36  1  0
A    1
 C1 
A    2
 C2 
A    3
 N1 
A    4
 C3 
A    5
 O1 
A    6
 C4 
A    7
 C5 
A    8
 C6 
A    9
 C7 
A   10
 C8 
A   11
 C9 
A   12
CL1 
A   13
 C10
A   14
 C11
A   15
 C12
A   16
 O2 
A   17
 C13
A   18
 C14
A   19
 H1 
A   20
 H2 
A   21
 H3 
A   22
 H4 
A   23
 H5 
A   24
 H6 
A   25
 H7 
A   26
 H8 
A   27
 H9 
A   28
 H10
A   29
 H11
A   30
 H12
A   31
 H13
A   32
 H14
A   33
 H15
A   34
 H16
A   35
 H17
A   36
 H18
M  END
>  <ref_pdb>  (129) 
x0451_0A

>  <ref_mols>  (129) 
x0451_0A,x0554_0A,x0556_0A,x0566_0A,x0310_0A,x0416_0A

>  <original SMILES>  (129) 
CCNC(=O)C1(c2cccc(Cl)c2)CCOCC1

>  <rationale>  (129) 
info info set:ROCS-shape_Q1;Warhead nanÅ to Cys110:SG; hbond:S125+G108; hydroph_interaction:Y89+Y90+A110; 

>  <∆∆G>  (129) 
-8.040807

>  <comRMSD>  (129) 
0.575182

>  <ROCS_TanimotoCombo>  (129) 
0.418

>  <ROCS_ShapeTanimoto>  (129) 
0.288

>  <ROCS_ColorTanimoto>  (129) 
0.129

>  <distance>  (129) 
nan

$$$$
Z32015116
     RDKit          3D

 43 45  0  0  0  0  0  0  0  0999 V2000
   14.1640   12.2310   24.8350 C   0  0  0  0  0  0  0  0  0  0  0  0
   13.0220   12.9650   25.3680 N   0  0  0  0  0  0  0  0  0  0  0  0
   12.7680   13.0530   26.7380 C   0  0  0  0  0  0  0  0  0  0  0  0
   12.0830   13.5290   24.5240 C   0  0  0  0  0  0  0  0  0  0  0  0
   11.4350   14.5280   24.8130 O   0  0  0  0  0  0  0  0  0  0  0  0
   11.7920   12.9690   23.3450 C   0  0  1  0  0  0  0  0  0  0  0  0
   10.4390   12.7850   22.9260 C   0  0  0  0  0  0  0  0  0  0  0  0
    9.7000   11.6750   23.5770 C   0  0  0  0  0  0  0  0  0  0  0  0
   10.0300   10.3080   23.3200 C   0  0  0  0  0  0  0  0  0  0  0  0
    9.0540    9.6840   24.1940 N   0  0  0  0  0  0  0  0  0  0  0  0
    8.2380   10.5430   24.8910 C   0  0  0  0  0  0  0  0  0  0  0  0
    7.2280   10.3180   25.7960 C   0  0  0  0  0  0  0  0  0  0  0  0
    6.4330   11.4280   26.4610 C   0  0  0  0  0  0  0  0  0  0  0  0
    6.7650   12.7540   26.1160 C   0  0  0  0  0  0  0  0  0  0  0  0
    7.8940   13.0040   25.1110 C   0  0  0  0  0  0  0  0  0  0  0  0
    8.6190   11.8020   24.5140 C   0  0  0  0  0  0  0  0  0  0  0  0
   12.3850   13.9050   22.3830 N   0  0  0  0  0  0  0  0  0  0  0  0
   11.7360   15.0810   22.0540 C   0  0  0  0  0  0  0  0  0  0  0  0
   11.1950   15.7440   22.8990 O   0  0  0  0  0  0  0  0  0  0  0  0
   11.7060   15.4880   20.6470 C   0  0  0  0  0  0  0  0  0  0  0  0
   10.8100   16.5570   20.1860 C   0  0  0  0  0  0  0  0  0  0  0  0
   10.9810   16.7670   18.7040 C   0  0  0  0  0  0  0  0  0  0  0  0
   12.0270   15.8020   18.1910 C   0  0  0  0  0  0  0  0  0  0  0  0
   12.6540   14.8070   19.4170 S   0  0  0  0  0  0  0  0  0  0  0  0
   15.0540   12.8630   24.8960 H   0  0  0  0  0  0  0  0  0  0  0  0
   14.0290   11.9220   23.7970 H   0  0  0  0  0  0  0  0  0  0  0  0
   14.3410   11.3340   25.4360 H   0  0  0  0  0  0  0  0  0  0  0  0
   11.7380   12.7280   26.9030 H   0  0  0  0  0  0  0  0  0  0  0  0
   12.8680   14.0620   27.1500 H   0  0  0  0  0  0  0  0  0  0  0  0
   13.4540   12.3830   27.2700 H   0  0  0  0  0  0  0  0  0  0  0  0
   12.3630   12.0490   23.1970 H   0  0  0  0  0  0  0  0  0  0  0  0
    9.8980   13.6950   23.2140 H   0  0  0  0  0  0  0  0  0  0  0  0
   10.4470   12.8660   21.8620 H   0  0  0  0  0  0  0  0  0  0  0  0
   10.7820    9.8420   22.6740 H   0  0  0  0  0  0  0  0  0  0  0  0
    8.9860    8.6790   24.2810 H   0  0  0  0  0  0  0  0  0  0  0  0
    6.9690    9.2950   26.0660 H   0  0  0  0  0  0  0  0  0  0  0  0
    5.6370   11.1970   27.1750 H   0  0  0  0  0  0  0  0  0  0  0  0
    6.2240   13.5930   26.5630 H   0  0  0  0  0  0  0  0  0  0  0  0
    8.1760   14.0240   24.8270 H   0  0  0  0  0  0  0  0  0  0  0  0
   13.3900   13.7790   22.2300 H   0  0  0  0  0  0  0  0  0  0  0  0
   10.1230   17.1190   20.8080 H   0  0  0  0  0  0  0  0  0  0  0  0
   10.4500   17.4880   18.0950 H   0  0  0  0  0  0  0  0  0  0  0  0
   12.3660   15.7100   17.1970 H   0  0  0  0  0  0  0  0  0  0  0  0
  1  2  1  0
  2  3  1  0
  2  4  1  0
  4  5  2  0
  4  6  1  0
  6  7  1  0
  7  8  1  0
  8  9  2  0
  9 10  1  0
 10 11  1  0
 11 12  2  0
 12 13  1  0
 13 14  2  0
 14 15  1  0
 15 16  2  0
  6 17  1  0
 17 18  1  0
 18 19  2  0
 18 20  1  0
 20 21  2  0
 21 22  1  0
 22 23  2  0
 23 24  1  0
 16  8  1  0
 24 20  1  0
 16 11  1  0
  1 25  1  0
  1 26  1  0
  1 27  1  0
  3 28  1  0
  3 29  1  0
  3 30  1  0
  6 31  1  1
  7 32  1  0
  7 33  1  0
  9 34  1  0
 10 35  1  0
 12 36  1  0
 13 37  1  0
 14 38  1  0
 15 39  1  0
 17 40  1  0
 21 41  1  0
 22 42  1  0
 23 43  1  0
A    1
 C1 
A    2
 N1 
A    3
 C2 
A    4
 C3 
A    5
 O1 
A    6
 C4 
A    7
 C5 
A    8
 C6 
A    9
 C7 
A   10
 N2 
A   11
 C8 
A   12
 C9 
A   13
 C10
A   14
 C11
A   15
 C12
A   16
 C13
A   17
 N3 
A   18
 C14
A   19
 O2 
A   20
 C15
A   21
 C16
A   22
 C17
A   23
 C18
A   24
 S1 
A   25
 H1 
A   26
 H2 
A   27
 H3 
A   28
 H4 
A   29
 H5 
A   30
 H6 
A   31
 H7 
A   32
 H8 
A   33
 H9 
A   34
 H10
A   35
 H11
A   36
 H12
A   37
 H13
A   38
 H14
A   39
 H15
A   40
 H16
A   41
 H17
A   42
 H18
A   43
 H19
M  END
>  <ref_pdb>  (130) 
x0451_0A

>  <ref_mols>  (130) 
x0451_0A,x0554_0A,x0556_0A,x0566_0A,x0310_0A,x0416_0A

>  <original SMILES>  (130) 
CN(C)C(=O)[C@@H](Cc1c[nH]c2ccccc12)NC(=O)c1cccs1

>  <rationale>  (130) 
info info set:ROCS-PPI;Warhead nanÅ to Cys110:SG; hbond:S87+H21; hydroph_interaction:Y90; 

>  <∆∆G>  (130) 
-8.026609

>  <comRMSD>  (130) 
0.997404

>  <ROCS_TanimotoCombo>  (130) 
0.555

>  <ROCS_ShapeTanimoto>  (130) 
0.365

>  <ROCS_ColorTanimoto>  (130) 
0.191

>  <distance>  (130) 
nan

$$$$
EN300_27736036
     RDKit          3D

 48 49  0  0  0  0  0  0  0  0999 V2000
   12.4030   15.3330   20.2320 C   0  0  0  0  0  0  0  0  0  0  0  0
   11.4930   14.9650   21.3130 C   0  0  0  0  0  0  0  0  0  0  0  0
   10.2720   14.4630   20.8980 C   0  0  0  0  0  0  0  0  0  0  0  0
   11.1060   16.2000   22.0650 C   0  0  0  0  0  0  0  0  0  0  0  0
   11.9270   14.1540   22.1300 O   0  0  0  0  0  0  0  0  0  0  0  0
   11.2090   13.8220   23.2180 C   0  0  0  0  0  0  0  0  0  0  0  0
   11.1670   14.4480   24.2630 O   0  0  0  0  0  0  0  0  0  0  0  0
   10.5660   12.6900   22.9010 N   0  0  0  0  0  0  0  0  0  0  0  0
    9.6000   12.0580   23.6230 C   0  0  0  0  0  0  0  0  0  0  0  0
    8.4900   12.5390   24.5020 C   0  0  0  0  0  0  0  0  0  0  0  0
    8.0620   14.1540   24.8880 Cl  0  0  0  0  0  0  0  0  0  0  0  0
    7.7350   11.4550   25.0550 N   0  0  0  0  0  0  0  0  0  0  0  0
    6.6470   11.4420   25.8960 C   0  0  0  0  0  0  0  0  0  0  0  0
    5.9240   10.4530   26.0760 O   0  0  0  0  0  0  0  0  0  0  0  0
    6.5200   12.6600   26.4510 O   0  0  0  0  0  0  0  0  0  0  0  0
    5.3890   12.9840   27.2730 C   0  0  0  0  0  0  0  0  0  0  0  0
    5.3820   14.4790   27.6180 C   0  0  0  0  0  0  0  0  0  0  0  0
    4.0880   12.5620   26.6290 C   0  0  0  0  0  0  0  0  0  0  0  0
    5.5910   12.1370   28.5320 C   0  0  0  0  0  0  0  0  0  0  0  0
    8.3810   10.3490   24.5200 C   0  0  0  0  0  0  0  0  0  0  0  0
    8.0610    8.9370   24.7380 C   0  0  0  0  0  0  0  0  0  0  0  0
    8.7970    7.9690   24.1010 C   0  0  0  0  0  0  0  0  0  0  0  0
    9.8320    8.3120   23.2850 C   0  0  0  0  0  0  0  0  0  0  0  0
   10.1790    9.6240   23.0620 C   0  0  0  0  0  0  0  0  0  0  0  0
    9.4610   10.6630   23.6750 C   0  0  0  0  0  0  0  0  0  0  0  0
   12.6950   14.4540   19.6510 H   0  0  0  0  0  0  0  0  0  0  0  0
   11.9140   16.0340   19.5550 H   0  0  0  0  0  0  0  0  0  0  0  0
   13.3090   15.8010   20.6270 H   0  0  0  0  0  0  0  0  0  0  0  0
    9.6200   13.9780   21.6170 H   0  0  0  0  0  0  0  0  0  0  0  0
   10.4520   13.7490   20.0930 H   0  0  0  0  0  0  0  0  0  0  0  0
    9.6910   15.2670   20.4350 H   0  0  0  0  0  0  0  0  0  0  0  0
   10.0750   16.4860   21.8420 H   0  0  0  0  0  0  0  0  0  0  0  0
   11.2010   16.0610   23.1430 H   0  0  0  0  0  0  0  0  0  0  0  0
   11.7360   17.0300   21.7830 H   0  0  0  0  0  0  0  0  0  0  0  0
   10.8560   12.2800   22.0080 H   0  0  0  0  0  0  0  0  0  0  0  0
    4.5450   14.7390   28.2750 H   0  0  0  0  0  0  0  0  0  0  0  0
    5.3370   15.0920   26.7120 H   0  0  0  0  0  0  0  0  0  0  0  0
    6.3070   14.7530   28.1380 H   0  0  0  0  0  0  0  0  0  0  0  0
    4.0980   11.4930   26.4600 H   0  0  0  0  0  0  0  0  0  0  0  0
    3.2230   12.8130   27.2540 H   0  0  0  0  0  0  0  0  0  0  0  0
    3.9400   13.0570   25.6630 H   0  0  0  0  0  0  0  0  0  0  0  0
    6.5110   12.4020   29.0680 H   0  0  0  0  0  0  0  0  0  0  0  0
    4.7720   12.2730   29.2340 H   0  0  0  0  0  0  0  0  0  0  0  0
    5.6190   11.0680   28.2860 H   0  0  0  0  0  0  0  0  0  0  0  0
    7.2550    8.6680   25.3900 H   0  0  0  0  0  0  0  0  0  0  0  0
    8.5560    6.9210   24.2540 H   0  0  0  0  0  0  0  0  0  0  0  0
   10.3880    7.5470   22.8180 H   0  0  0  0  0  0  0  0  0  0  0  0
   11.0130    9.8400   22.4060 H   0  0  0  0  0  0  0  0  0  0  0  0
  1  2  1  0
  2  3  1  0
  2  4  1  0
  2  5  1  0
  5  6  1  0
  6  7  2  0
  6  8  1  0
  8  9  1  0
  9 10  2  0
 10 11  1  0
 10 12  1  0
 12 13  1  0
 13 14  2  0
 13 15  1  0
 15 16  1  0
 16 17  1  0
 16 18  1  0
 16 19  1  0
 12 20  1  0
 20 21  2  0
 21 22  1  0
 22 23  2  0
 23 24  1  0
 24 25  2  0
 25  9  1  0
 25 20  1  0
  1 26  1  0
  1 27  1  0
  1 28  1  0
  3 29  1  0
  3 30  1  0
  3 31  1  0
  4 32  1  0
  4 33  1  0
  4 34  1  0
  8 35  1  0
 17 36  1  0
 17 37  1  0
 17 38  1  0
 18 39  1  0
 18 40  1  0
 18 41  1  0
 19 42  1  0
 19 43  1  0
 19 44  1  0
 21 45  1  0
 22 46  1  0
 23 47  1  0
 24 48  1  0
A    1
 C1 
A    2
 C2 
A    3
 C3 
A    4
 C4 
A    5
 O1 
A    6
 C5 
A    7
 O2 
A    8
 N1 
A    9
 C6 
A   10
 C7 
A   11
CL1 
A   12
 N2 
A   13
 C8 
A   14
 O3 
A   15
 O4 
A   16
 C9 
A   17
 C10
A   18
 C11
A   19
 C12
A   20
 C13
A   21
 C14
A   22
 C15
A   23
 C16
A   24
 C17
A   25
 C18
A   26
 H1 
A   27
 H2 
A   28
 H3 
A   29
 H4 
A   30
 H5 
A   31
 H6 
A   32
 H7 
A   33
 H8 
A   34
 H9 
A   35
 H10
A   36
 H11
A   37
 H12
A   38
 H13
A   39
 H14
A   40
 H15
A   41
 H16
A   42
 H17
A   43
 H18
A   44
 H19
A   45
 H20
A   46
 H21
A   47
 H22
A   48
 H23
M  END
>  <ref_pdb>  (131) 
x0451_0A

>  <ref_mols>  (131) 
x0451_0A,x0554_0A,x0556_0A,x0566_0A,x0310_0A,x0416_0A

>  <original SMILES>  (131) 
CC(C)(C)OC(=O)Nc1c(Cl)n(C(=O)OC(C)(C)C)c2ccccc12

>  <rationale>  (131) 
info info set:ROCS-BB-1RB;Warhead nanÅ to Cys110:SG; hbond:S125; hydroph_interaction:Y89+Y90+V124+D109; 

>  <∆∆G>  (131) 
-8.024247

>  <comRMSD>  (131) 
0.550379

>  <ROCS_TanimotoCombo>  (131) 
0.541

>  <ROCS_ShapeTanimoto>  (131) 
0.413

>  <ROCS_ColorTanimoto>  (131) 
0.128

>  <distance>  (131) 
nan

$$$$
Z561135058
     RDKit          3D

 32 33  0  0  0  0  0  0  0  0999 V2000
   11.1950   15.9150   22.9130 O   0  0  0  0  0  0  0  0  0  0  0  0
   11.4280   14.8800   22.2160 C   0  0  0  0  0  0  0  0  0  0  0  0
   12.0020   15.0580   20.8060 C   0  0  0  0  0  0  0  0  0  0  0  0
   10.7740   15.7230   19.7010 Cl  0  0  0  0  0  0  0  0  0  0  0  0
   11.1810   13.5920   22.6400 N   0  0  0  0  0  0  0  0  0  0  0  0
   10.5000   13.2980   23.9030 C   0  0  0  0  0  0  0  0  0  0  0  0
    9.7030   12.0160   23.7520 C   0  0  1  0  0  0  0  0  0  0  0  0
   10.4860   10.7480   23.5370 C   0  0  0  0  0  0  0  0  0  0  0  0
    9.8010    9.4540   23.4650 C   0  0  0  0  0  0  0  0  0  0  0  0
    8.6060    9.3290   24.1760 C   0  0  0  0  0  0  0  0  0  0  0  0
    8.0710   10.5190   24.9380 C   0  0  0  0  0  0  0  0  0  0  0  0
    7.0490   10.3260   25.8360 C   0  0  0  0  0  0  0  0  0  0  0  0
    6.4660   11.5050   26.6290 C   0  0  0  0  0  0  0  0  0  0  0  0
    7.0140   12.7670   26.4030 C   0  0  0  0  0  0  0  0  0  0  0  0
    8.0580   13.0380   25.5020 C   0  0  0  0  0  0  0  0  0  0  0  0
    8.5850   11.8130   24.7510 C   0  0  0  0  0  0  0  0  0  0  0  0
   12.8460   15.7510   20.8360 H   0  0  0  0  0  0  0  0  0  0  0  0
   12.3260   14.0870   20.4190 H   0  0  0  0  0  0  0  0  0  0  0  0
   11.2310   12.8530   21.9190 H   0  0  0  0  0  0  0  0  0  0  0  0
    9.9630   14.2060   24.1770 H   0  0  0  0  0  0  0  0  0  0  0  0
   11.2940   13.1760   24.6490 H   0  0  0  0  0  0  0  0  0  0  0  0
    9.1430   12.1680   22.8610 H   0  0  0  0  0  0  0  0  0  0  0  0
   11.1030   10.8560   22.6440 H   0  0  0  0  0  0  0  0  0  0  0  0
   11.2080   10.6730   24.3630 H   0  0  0  0  0  0  0  0  0  0  0  0
   10.4880    8.6770   23.8160 H   0  0  0  0  0  0  0  0  0  0  0  0
    9.6130    9.2080   22.4150 H   0  0  0  0  0  0  0  0  0  0  0  0
    8.7230    8.5120   24.8970 H   0  0  0  0  0  0  0  0  0  0  0  0
    7.8580    8.9980   23.4660 H   0  0  0  0  0  0  0  0  0  0  0  0
    6.6390    9.3350   25.9950 H   0  0  0  0  0  0  0  0  0  0  0  0
    5.6570   11.3590   27.3390 H   0  0  0  0  0  0  0  0  0  0  0  0
    6.6050   13.6020   26.9610 H   0  0  0  0  0  0  0  0  0  0  0  0
    8.4510   14.0410   25.3570 H   0  0  0  0  0  0  0  0  0  0  0  0
  1  2  2  0
  2  3  1  0
  3  4  1  0
  2  5  1  0
  5  6  1  0
  6  7  1  0
  7  8  1  0
  8  9  1  0
  9 10  1  0
 10 11  1  0
 11 12  2  0
 12 13  1  0
 13 14  2  0
 14 15  1  0
 15 16  2  0
 16  7  1  0
 16 11  1  0
  3 17  1  0
  3 18  1  0
  5 19  1  0
  6 20  1  0
  6 21  1  0
  7 22  1  6
  8 23  1  0
  8 24  1  0
  9 25  1  0
  9 26  1  0
 10 27  1  0
 10 28  1  0
 12 29  1  0
 13 30  1  0
 14 31  1  0
 15 32  1  0
A    1
 O1 
A    2
 C1 
A    3
 C2 
A    4
CL1 
A    5
 N1 
A    6
 C3 
A    7
 C4 
A    8
 C5 
A    9
 C6 
A   10
 C7 
A   11
 C8 
A   12
 C9 
A   13
 C10
A   14
 C11
A   15
 C12
A   16
 C13
A   17
 H1 
A   18
 H2 
A   19
 H3 
A   20
 H4 
A   21
 H5 
A   22
 H6 
A   23
 H7 
A   24
 H8 
A   25
 H9 
A   26
 H10
A   27
 H11
A   28
 H12
A   29
 H13
A   30
 H14
A   31
 H15
A   32
 H16
M  END
>  <ref_pdb>  (132) 
x0451_0A

>  <ref_mols>  (132) 
x0451_0A,x0554_0A,x0556_0A,x0566_0A,x0310_0A,x0416_0A

>  <original SMILES>  (132) 
O=C(CCl)NC[C@H]1CCCc2ccccc21

>  <rationale>  (132) 
info info set:ROCS-electro;Warhead 5.791656623972107Å to Cys110:SG; hbond:S87+S125; 

>  <∆∆G>  (132) 
-8.017663

>  <comRMSD>  (132) 
0.471612

>  <ROCS_TanimotoCombo>  (132) 
0.438

>  <ROCS_ShapeTanimoto>  (132) 
0.308

>  <ROCS_ColorTanimoto>  (132) 
0.13

>  <distance>  (132) 
5.791657

$$$$
EN300_784377
     RDKit          3D

 41 43  0  0  0  0  0  0  0  0999 V2000
   11.8410   14.3300   19.5540 C   0  0  0  0  0  0  0  0  0  0  0  0
   11.3430   14.9060   20.8670 C   0  0  0  0  0  0  0  0  0  0  0  0
   12.4390   15.5790   21.6200 C   0  0  0  0  0  0  0  0  0  0  0  0
   10.2300   15.8910   20.5200 C   0  0  0  0  0  0  0  0  0  0  0  0
   10.8130   13.8320   21.6870 O   0  0  0  0  0  0  0  0  0  0  0  0
   10.5490   14.0790   23.0070 C   0  0  0  0  0  0  0  0  0  0  0  0
   10.5860   15.2170   23.4600 O   0  0  0  0  0  0  0  0  0  0  0  0
   10.2420   12.9170   23.7290 N   0  0  0  0  0  0  0  0  0  0  0  0
   11.0540   11.6820   23.6280 C   0  0  0  0  0  0  0  0  0  0  0  0
   10.3110   10.4770   23.5900 C   0  0  0  0  0  0  0  0  0  0  0  0
    9.0860   10.4320   24.2620 C   0  0  0  0  0  0  0  0  0  0  0  0
    8.3250    9.3050   24.5140 N   0  0  0  0  0  0  0  0  0  0  0  0
    7.2610    9.8030   25.1860 N   0  0  0  0  0  0  0  0  0  0  0  0
    7.3000   11.1580   25.3710 C   0  0  0  0  0  0  0  0  0  0  0  0
    6.2670   12.0240   26.0790 C   0  0  0  0  0  0  0  0  0  0  0  0
    5.0170   11.4570   26.6850 C   0  0  0  0  0  0  0  0  0  0  0  0
    4.0870   12.2110   27.3070 N   0  0  0  0  0  0  0  0  0  0  0  0
    4.3500   13.5280   27.3560 C   0  0  0  0  0  0  0  0  0  0  0  0
    5.4330   14.1570   26.8560 N   0  0  0  0  0  0  0  0  0  0  0  0
    6.3640   13.3910   26.2300 C   0  0  0  0  0  0  0  0  0  0  0  0
    8.4920   11.5840   24.7670 C   0  0  0  0  0  0  0  0  0  0  0  0
    9.0880   12.9500   24.6370 C   0  0  0  0  0  0  0  0  0  0  0  0
   12.4950   13.4860   19.7190 H   0  0  0  0  0  0  0  0  0  0  0  0
   12.4080   15.0730   18.9850 H   0  0  0  0  0  0  0  0  0  0  0  0
   11.0170   13.9880   18.9190 H   0  0  0  0  0  0  0  0  0  0  0  0
   12.1530   16.4210   22.2310 H   0  0  0  0  0  0  0  0  0  0  0  0
   13.2210   15.9430   20.9500 H   0  0  0  0  0  0  0  0  0  0  0  0
   12.9160   14.8460   22.2780 H   0  0  0  0  0  0  0  0  0  0  0  0
   10.3560   16.2870   19.5150 H   0  0  0  0  0  0  0  0  0  0  0  0
    9.2480   15.4070   20.5850 H   0  0  0  0  0  0  0  0  0  0  0  0
   10.2070   16.7440   21.2050 H   0  0  0  0  0  0  0  0  0  0  0  0
   11.7320   11.6540   24.4910 H   0  0  0  0  0  0  0  0  0  0  0  0
   11.7130   11.7200   22.7590 H   0  0  0  0  0  0  0  0  0  0  0  0
   10.9200    9.6550   23.9840 H   0  0  0  0  0  0  0  0  0  0  0  0
   10.1220   10.2080   22.5440 H   0  0  0  0  0  0  0  0  0  0  0  0
    6.5450    9.1470   25.4830 H   0  0  0  0  0  0  0  0  0  0  0  0
    4.7960   10.3940   26.6490 H   0  0  0  0  0  0  0  0  0  0  0  0
    3.6070   14.1560   27.8570 H   0  0  0  0  0  0  0  0  0  0  0  0
    7.2200   13.9530   25.8390 H   0  0  0  0  0  0  0  0  0  0  0  0
    9.3920   13.3340   25.6160 H   0  0  0  0  0  0  0  0  0  0  0  0
    8.3550   13.6440   24.2010 H   0  0  0  0  0  0  0  0  0  0  0  0
  1  2  1  0
  2  3  1  0
  2  4  1  0
  2  5  1  0
  5  6  1  0
  6  7  2  0
  6  8  1  0
  8  9  1  0
  9 10  1  0
 10 11  1  0
 11 12  2  0
 12 13  1  0
 13 14  1  0
 14 15  1  0
 15 16  2  0
 16 17  1  0
 17 18  2  0
 18 19  1  0
 19 20  2  0
 14 21  2  0
 21 22  1  0
 22  8  1  0
 21 11  1  0
 20 15  1  0
  1 23  1  0
  1 24  1  0
  1 25  1  0
  3 26  1  0
  3 27  1  0
  3 28  1  0
  4 29  1  0
  4 30  1  0
  4 31  1  0
  9 32  1  0
  9 33  1  0
 10 34  1  0
 10 35  1  0
 13 36  1  0
 16 37  1  0
 18 38  1  0
 20 39  1  0
 22 40  1  0
 22 41  1  0
A    1
 C1 
A    2
 C2 
A    3
 C3 
A    4
 C4 
A    5
 O1 
A    6
 C5 
A    7
 O2 
A    8
 N1 
A    9
 C6 
A   10
 C7 
A   11
 C8 
A   12
 N2 
A   13
 N3 
A   14
 C9 
A   15
 C10
A   16
 C11
A   17
 N4 
A   18
 C12
A   19
 N5 
A   20
 C13
A   21
 C14
A   22
 C15
A   23
 H1 
A   24
 H2 
A   25
 H3 
A   26
 H4 
A   27
 H5 
A   28
 H6 
A   29
 H7 
A   30
 H8 
A   31
 H9 
A   32
 H10
A   33
 H11
A   34
 H12
A   35
 H13
A   36
 H14
A   37
 H15
A   38
 H16
A   39
 H17
A   40
 H18
A   41
 H19
M  END
>  <ref_pdb>  (133) 
x0451_0A

>  <ref_mols>  (133) 
x0451_0A,x0554_0A,x0556_0A,x0566_0A,x0310_0A,x0416_0A

>  <original SMILES>  (133) 
CC(C)(C)OC(=O)N1CCc2n[nH]c(-c3cncnc3)c2C1

>  <rationale>  (133) 
info info set:ROCS-BB-1RB;Warhead nanÅ to Cys110:SG; hbond:S87; hydroph_interaction:Y89+Y90; 

>  <∆∆G>  (133) 
-8.009762

>  <comRMSD>  (133) 
0.346066

>  <ROCS_TanimotoCombo>  (133) 
0.515

>  <ROCS_ShapeTanimoto>  (133) 
0.352

>  <ROCS_ColorTanimoto>  (133) 
0.163

>  <distance>  (133) 
nan

$$$$
Z45600605
     RDKit          3D

 59 61  0  0  0  0  0  0  0  0999 V2000
    8.7440    7.5570   23.4110 C   0  0  0  0  0  0  0  0  0  0  0  0
    9.0800    8.9920   23.2760 C   0  0  0  0  0  0  0  0  0  0  0  0
   10.1640    9.2870   22.4750 C   0  0  0  0  0  0  0  0  0  0  0  0
    9.3390    9.6430   24.4980 O   0  0  0  0  0  0  0  0  0  0  0  0
    8.3670   10.4860   24.9650 C   0  0  0  0  0  0  0  0  0  0  0  0
    7.4710    9.9790   25.8560 C   0  0  0  0  0  0  0  0  0  0  0  0
    6.4860   10.7280   26.4360 C   0  0  0  0  0  0  0  0  0  0  0  0
    6.4100   12.2010   26.0450 C   0  0  0  0  0  0  0  0  0  0  0  0
    5.1700   13.2120   26.8170 S   0  0  0  0  0  6  0  0  0  0  0  0
    5.1380   14.5000   26.1580 O   0  0  0  0  0  0  0  0  0  0  0  0
    3.9790   12.4010   26.9830 O   0  0  0  0  0  0  0  0  0  0  0  0
    5.8900   13.4230   28.3460 N   0  0  0  0  0  0  0  0  0  0  0  0
    7.2220   14.0610   28.2930 C   0  0  0  0  0  0  0  0  0  0  0  0
    7.6800   14.4060   29.6930 C   0  0  0  0  0  0  0  0  0  0  0  0
    7.1210   13.6450   30.7440 C   0  0  0  0  0  0  0  0  0  0  0  0
    6.3820   12.4840   30.4390 C   0  0  0  0  0  0  0  0  0  0  0  0
    5.7630   12.3410   29.1810 C   0  0  0  0  0  0  0  0  0  0  0  0
    7.3180   12.7030   25.1020 C   0  0  0  0  0  0  0  0  0  0  0  0
    8.2900   11.8420   24.5610 C   0  0  0  0  0  0  0  0  0  0  0  0
    9.2160   12.3240   23.5860 N   0  0  0  0  0  0  0  0  0  0  0  0
   10.7160   13.0020   23.9800 S   0  0  0  0  0  6  0  0  0  0  0  0
   10.4730   14.0430   24.9450 O   0  0  0  0  0  0  0  0  0  0  0  0
   11.6300   11.9100   24.2250 O   0  0  0  0  0  0  0  0  0  0  0  0
   11.1340   13.7160   22.4790 C   0  0  0  0  0  0  0  0  0  0  0  0
   10.5840   14.8920   22.0310 C   0  0  0  0  0  0  0  0  0  0  0  0
   11.0260   15.2400   20.7270 C   0  0  0  0  0  0  0  0  0  0  0  0
   12.2540   14.8730   20.3490 C   0  0  0  0  0  0  0  0  0  0  0  0
   12.6900   15.1450   19.1040 C   0  0  0  0  0  0  0  0  0  0  0  0
   11.9150   15.8140   18.1720 C   0  0  0  0  0  0  0  0  0  0  0  0
   10.6600   16.2170   18.5320 C   0  0  0  0  0  0  0  0  0  0  0  0
   10.2120   15.9250   19.8210 C   0  0  0  0  0  0  0  0  0  0  0  0
    7.8770    7.3150   22.7920 H   0  0  0  0  0  0  0  0  0  0  0  0
    9.5660    6.9440   23.0710 H   0  0  0  0  0  0  0  0  0  0  0  0
    8.5430    7.2950   24.4530 H   0  0  0  0  0  0  0  0  0  0  0  0
    8.1860    9.4300   22.9020 H   0  0  0  0  0  0  0  0  0  0  0  0
    9.9770    8.9800   21.4560 H   0  0  0  0  0  0  0  0  0  0  0  0
   10.3460   10.3670   22.4580 H   0  0  0  0  0  0  0  0  0  0  0  0
   11.0620    8.7810   22.8300 H   0  0  0  0  0  0  0  0  0  0  0  0
    7.6200    8.9360   26.0590 H   0  0  0  0  0  0  0  0  0  0  0  0
    5.7890   10.3020   27.1530 H   0  0  0  0  0  0  0  0  0  0  0  0
    7.1290   14.9770   27.7010 H   0  0  0  0  0  0  0  0  0  0  0  0
    7.8630   13.4180   27.6820 H   0  0  0  0  0  0  0  0  0  0  0  0
    7.6880   15.4770   29.8600 H   0  0  0  0  0  0  0  0  0  0  0  0
    8.7480   14.1650   29.7130 H   0  0  0  0  0  0  0  0  0  0  0  0
    6.4720   14.3210   31.3160 H   0  0  0  0  0  0  0  0  0  0  0  0
    7.9180   13.3700   31.4450 H   0  0  0  0  0  0  0  0  0  0  0  0
    5.5390   12.5360   31.1370 H   0  0  0  0  0  0  0  0  0  0  0  0
    6.8650   11.5730   30.7760 H   0  0  0  0  0  0  0  0  0  0  0  0
    4.7030   12.1210   29.1890 H   0  0  0  0  0  0  0  0  0  0  0  0
    6.2070   11.4720   28.7010 H   0  0  0  0  0  0  0  0  0  0  0  0
    7.2730   13.7450   24.7940 H   0  0  0  0  0  0  0  0  0  0  0  0
    9.3790   11.6400   22.8500 H   0  0  0  0  0  0  0  0  0  0  0  0
   11.8510   13.1790   21.8680 H   0  0  0  0  0  0  0  0  0  0  0  0
    9.8640   15.4690   22.6060 H   0  0  0  0  0  0  0  0  0  0  0  0
   12.8720   14.3520   21.0530 H   0  0  0  0  0  0  0  0  0  0  0  0
   13.6540   14.8340   18.8620 H   0  0  0  0  0  0  0  0  0  0  0  0
   12.2910   16.0220   17.1780 H   0  0  0  0  0  0  0  0  0  0  0  0
   10.0220   16.7510   17.8270 H   0  0  0  0  0  0  0  0  0  0  0  0
    9.2090   16.2400   20.1040 H   0  0  0  0  0  0  0  0  0  0  0  0
  1  2  1  0
  2  3  1  0
  2  4  1  0
  4  5  1  0
  5  6  2  0
  6  7  1  0
  7  8  2  0
  8  9  1  0
  9 10  2  0
  9 11  2  0
  9 12  1  0
 12 13  1  0
 13 14  1  0
 14 15  1  0
 15 16  1  0
 16 17  1  0
  8 18  1  0
 18 19  2  0
 19 20  1  0
 20 21  1  0
 21 22  2  0
 21 23  2  0
 21 24  1  0
 24 25  2  3
 25 26  1  0
 26 27  2  0
 27 28  1  0
 28 29  2  0
 29 30  1  0
 30 31  2  0
 19  5  1  0
 31 26  1  0
 17 12  1  0
  1 32  1  0
  1 33  1  0
  1 34  1  0
  2 35  1  0
  3 36  1  0
  3 37  1  0
  3 38  1  0
  6 39  1  0
  7 40  1  0
 13 41  1  0
 13 42  1  0
 14 43  1  0
 14 44  1  0
 15 45  1  0
 15 46  1  0
 16 47  1  0
 16 48  1  0
 17 49  1  0
 17 50  1  0
 18 51  1  0
 20 52  1  0
 24 53  1  0
 25 54  1  0
 27 55  1  0
 28 56  1  0
 29 57  1  0
 30 58  1  0
 31 59  1  0
A    1
 C1 
A    2
 C2 
A    3
 C3 
A    4
 O1 
A    5
 C4 
A    6
 C5 
A    7
 C6 
A    8
 C7 
A    9
 S1 
A   10
 O2 
A   11
 O3 
A   12
 N1 
A   13
 C8 
A   14
 C9 
A   15
 C10
A   16
 C11
A   17
 C12
A   18
 C13
A   19
 C14
A   20
 N2 
A   21
 S2 
A   22
 O4 
A   23
 O5 
A   24
 C15
A   25
 C16
A   26
 C17
A   27
 C18
A   28
 C19
A   29
 C20
A   30
 C21
A   31
 C22
A   32
 H1 
A   33
 H2 
A   34
 H3 
A   35
 H4 
A   36
 H5 
A   37
 H6 
A   38
 H7 
A   39
 H8 
A   40
 H9 
A   41
 H10
A   42
 H11
A   43
 H12
A   44
 H13
A   45
 H14
A   46
 H15
A   47
 H16
A   48
 H17
A   49
 H18
A   50
 H19
A   51
 H20
A   52
 H21
A   53
 H22
A   54
 H23
A   55
 H24
A   56
 H25
A   57
 H26
A   58
 H27
A   59
 H28
M  END
>  <ref_pdb>  (134) 
x0451_0A

>  <ref_mols>  (134) 
x0451_0A,x0554_0A,x0556_0A,x0566_0A,x0310_0A,x0416_0A

>  <original SMILES>  (134) 
CC(C)Oc1ccc(S(=O)(=O)N2CCCCC2)cc1NS(=O)(=O)C=Cc1ccccc1

>  <rationale>  (134) 
info info set:ROCS-cov2;Warhead 5.027382088124992Å to Cys110:SG; hbond:T126; hydroph_interaction:Y90+P107+D109+D39; 

>  <∆∆G>  (134) 
-8.00398

>  <comRMSD>  (134) 
1.043887

>  <ROCS_TanimotoCombo>  (134) 
0.525

>  <ROCS_ShapeTanimoto>  (134) 
0.365

>  <ROCS_ColorTanimoto>  (134) 
0.161

>  <distance>  (134) 
5.027382

$$$$
EN300_1129092
     RDKit          3D

 49 51  0  0  0  0  0  0  0  0999 V2000
   12.8690   15.5310   20.6750 C   0  0  0  0  0  0  0  0  0  0  0  0
   11.4520   15.3940   20.2280 C   0  0  0  0  0  0  0  0  0  0  0  0
   10.7960   16.6710   19.6640 C   0  0  0  0  0  0  0  0  0  0  0  0
   11.4910   14.3390   19.1210 C   0  0  0  0  0  0  0  0  0  0  0  0
   10.8150   14.9730   21.1820 O   0  0  0  0  0  0  0  0  0  0  0  0
   11.3000   15.2310   22.4290 C   0  0  0  0  0  0  0  0  0  0  0  0
   11.5940   16.3210   22.8330 O   0  0  0  0  0  0  0  0  0  0  0  0
   11.4190   14.1130   23.1910 N   0  0  0  0  0  0  0  0  0  0  0  0
   11.5140   14.0090   24.5530 C   0  0  0  0  0  0  0  0  0  0  0  0
   10.8220   12.8310   24.8550 C   0  0  0  0  0  0  0  0  0  0  0  0
   10.1100   12.2050   23.6420 C   0  0  1  0  0  0  0  0  0  0  0  0
   10.1470   10.7840   23.4760 C   0  0  0  0  0  0  0  0  0  0  0  0
    8.9090   10.0360   23.9810 C   0  0  1  0  0  0  0  0  0  0  0  0
    9.2740    8.7790   24.5610 N   0  0  0  0  0  0  0  0  0  0  0  0
    7.9270   10.9350   24.7310 C   0  0  0  0  0  0  0  0  0  0  0  0
    7.1080   10.0380   25.6590 C   0  0  0  0  0  0  0  0  0  0  0  0
    6.1760   10.9030   26.2680 C   0  0  0  0  0  0  0  0  0  0  0  0
    5.3270   10.3040   27.1120 F   0  0  0  0  0  0  0  0  0  0  0  0
    6.0590   12.2890   26.0720 C   0  0  0  0  0  0  0  0  0  0  0  0
    4.9850   12.9710   26.8270 C   0  0  0  0  0  0  0  0  0  0  0  0
    4.1040   12.4470   27.4860 O   0  0  0  0  0  0  0  0  0  0  0  0
    5.0490   14.3110   26.7200 O   0  0  0  0  0  0  0  0  0  0  0  0
    6.9180   12.9850   25.1990 C   0  0  0  0  0  0  0  0  0  0  0  0
    7.8720   12.2500   24.5200 C   0  0  0  0  0  0  0  0  0  0  0  0
    8.7640   12.8120   23.6370 O   0  0  0  0  0  0  0  0  0  0  0  0
   11.0110   12.8930   22.6090 C   0  0  0  0  0  0  0  0  0  0  0  0
   13.0650   16.4810   21.1320 H   0  0  0  0  0  0  0  0  0  0  0  0
   13.1050   14.7660   21.4140 H   0  0  0  0  0  0  0  0  0  0  0  0
   13.5160   15.4200   19.8130 H   0  0  0  0  0  0  0  0  0  0  0  0
   10.8150   17.4980   20.3800 H   0  0  0  0  0  0  0  0  0  0  0  0
   11.2710   16.9660   18.7270 H   0  0  0  0  0  0  0  0  0  0  0  0
    9.7420   16.4630   19.4440 H   0  0  0  0  0  0  0  0  0  0  0  0
   11.4740   14.8170   18.1320 H   0  0  0  0  0  0  0  0  0  0  0  0
   12.4150   13.7520   19.1770 H   0  0  0  0  0  0  0  0  0  0  0  0
   10.6630   13.6440   19.1990 H   0  0  0  0  0  0  0  0  0  0  0  0
   12.5570   14.0010   24.8900 H   0  0  0  0  0  0  0  0  0  0  0  0
   11.0160   14.8740   25.0200 H   0  0  0  0  0  0  0  0  0  0  0  0
   10.1190   13.0260   25.6750 H   0  0  0  0  0  0  0  0  0  0  0  0
   11.5550   12.1090   25.2360 H   0  0  0  0  0  0  0  0  0  0  0  0
   10.6140   10.6280   22.5180 H   0  0  0  0  0  0  0  0  0  0  0  0
   10.9420   10.4610   24.1630 H   0  0  0  0  0  0  0  0  0  0  0  0
    8.3550    9.7350   23.1030 H   0  0  0  0  0  0  0  0  0  0  0  0
    8.4210    8.2170   24.6600 H   0  0  0  0  0  0  0  0  0  0  0  0
    9.6370    8.9110   25.5060 H   0  0  0  0  0  0  0  0  0  0  0  0
    7.1780    8.9900   25.8350 H   0  0  0  0  0  0  0  0  0  0  0  0
    5.1920   14.4550   25.7560 H   0  0  0  0  0  0  0  0  0  0  0  0
    6.8410   14.0580   25.0470 H   0  0  0  0  0  0  0  0  0  0  0  0
   11.9320   12.3290   22.4220 H   0  0  0  0  0  0  0  0  0  0  0  0
   10.5270   13.1520   21.6760 H   0  0  0  0  0  0  0  0  0  0  0  0
  1  2  1  0
  2  3  1  0
  2  4  1  0
  2  5  1  0
  5  6  1  0
  6  7  2  0
  6  8  1  0
  8  9  1  0
  9 10  1  0
 10 11  1  0
 11 12  1  0
 12 13  1  0
 13 14  1  0
 13 15  1  0
 15 16  2  0
 16 17  1  0
 17 18  1  0
 17 19  2  0
 19 20  1  0
 20 21  2  0
 20 22  1  0
 19 23  1  0
 23 24  2  0
 24 25  1  0
 11 26  1  0
 26  8  1  0
 11 25  1  6
 24 15  1  0
  1 27  1  0
  1 28  1  0
  1 29  1  0
  3 30  1  0
  3 31  1  0
  3 32  1  0
  4 33  1  0
  4 34  1  0
  4 35  1  0
  9 36  1  0
  9 37  1  0
 10 38  1  0
 10 39  1  0
 12 40  1  0
 12 41  1  0
 13 42  1  6
 14 43  1  0
 14 44  1  0
 16 45  1  0
 22 46  1  0
 23 47  1  0
 26 48  1  0
 26 49  1  0
A    1
 C1 
A    2
 C2 
A    3
 C3 
A    4
 C4 
A    5
 O1 
A    6
 C5 
A    7
 O2 
A    8
 N1 
A    9
 C6 
A   10
 C7 
A   11
 C8 
A   12
 C9 
A   13
 C10
A   14
 N2 
A   15
 C11
A   16
 C12
A   17
 C13
A   18
 F1 
A   19
 C14
A   20
 C15
A   21
 O3 
A   22
 O4 
A   23
 C16
A   24
 C17
A   25
 O5 
A   26
 C18
A   27
 H1 
A   28
 H2 
A   29
 H3 
A   30
 H4 
A   31
 H5 
A   32
 H6 
A   33
 H7 
A   34
 H8 
A   35
 H9 
A   36
 H10
A   37
 H11
A   38
 H12
A   39
 H13
A   40
 H14
A   41
 H15
A   42
 H16
A   43
 H17
A   44
 H18
A   45
 H19
A   46
 H20
A   47
 H21
A   48
 H22
A   49
 H23
M  END
>  <ref_pdb>  (135) 
x0451_0A

>  <ref_mols>  (135) 
x0451_0A,x0554_0A,x0556_0A,x0566_0A,x0310_0A,x0416_0A

>  <original SMILES>  (135) 
CC(C)(C)OC(=O)N1CC[C@]2(C[C@@H](N)c3cc(F)c(C(=O)O)cc3O2)C1

>  <rationale>  (135) 
info info set:ROCS-BB-1RB;Warhead nanÅ to Cys110:SG; hbond:S105+S87+G127; hydroph_interaction:Y89; 

>  <∆∆G>  (135) 
-7.974229

>  <comRMSD>  (135) 
0.73912

>  <ROCS_TanimotoCombo>  (135) 
0.533

>  <ROCS_ShapeTanimoto>  (135) 
0.388

>  <ROCS_ColorTanimoto>  (135) 
0.145

>  <distance>  (135) 
nan

$$$$
Z1639650038
     RDKit          3D

 38 39  0  0  0  0  0  0  0  0999 V2000
    8.6340    7.9000   23.2800 C   0  0  0  0  0  0  0  0  0  0  0  0
    8.1650    9.2130   23.5710 O   0  0  0  0  0  0  0  0  0  0  0  0
    8.8650    9.7730   24.6670 C   0  0  1  0  0  0  0  0  0  0  0  0
   10.3200    9.9010   24.2500 C   0  0  0  0  0  0  0  0  0  0  0  0
   10.5490   11.0350   23.2760 C   0  0  0  0  0  0  0  0  0  0  0  0
    9.8220   12.2960   23.5570 N   0  0  0  0  0  0  0  0  0  0  0  0
   10.4490   13.5700   23.5090 C   0  0  0  0  0  0  0  0  0  0  0  0
   10.5280   14.2540   24.5260 O   0  0  0  0  0  0  0  0  0  0  0  0
   10.9870   14.0590   22.3070 C   0  0  0  0  0  0  0  0  0  0  0  0
   12.2960   14.4120   22.1210 C   0  0  0  0  0  0  0  0  0  0  0  0
   12.5810   14.8730   20.8060 C   0  0  0  0  0  0  0  0  0  0  0  0
   11.4860   14.8490   19.9980 C   0  0  0  0  0  0  0  0  0  0  0  0
   11.3810   15.2200   18.5600 C   0  0  0  0  0  0  0  0  0  0  0  0
   10.1200   14.3130   20.8670 S   0  0  0  0  0  0  0  0  0  0  0  0
    8.4460   12.2330   24.1170 C   0  0  2  0  0  0  0  0  0  0  0  0
    7.9400   13.5630   24.7520 C   0  0  0  0  0  0  0  0  0  0  0  0
    6.5590   13.5010   25.2370 N   0  0  0  0  0  0  0  0  0  0  0  0
    8.2770   11.1020   25.1290 C   0  0  0  0  0  0  0  0  0  0  0  0
    8.6420    7.2940   24.1900 H   0  0  0  0  0  0  0  0  0  0  0  0
    7.9530    7.4410   22.5590 H   0  0  0  0  0  0  0  0  0  0  0  0
    9.6370    7.9380   22.8550 H   0  0  0  0  0  0  0  0  0  0  0  0
    8.7290    9.0560   25.4500 H   0  0  0  0  0  0  0  0  0  0  0  0
   10.6860    8.9640   23.8160 H   0  0  0  0  0  0  0  0  0  0  0  0
   10.9290   10.0830   25.1390 H   0  0  0  0  0  0  0  0  0  0  0  0
   11.6210   11.2540   23.2470 H   0  0  0  0  0  0  0  0  0  0  0  0
   10.2730   10.6700   22.3020 H   0  0  0  0  0  0  0  0  0  0  0  0
   13.0330   14.3410   22.9120 H   0  0  0  0  0  0  0  0  0  0  0  0
   13.5320   15.2040   20.4570 H   0  0  0  0  0  0  0  0  0  0  0  0
   10.9410   16.2170   18.4430 H   0  0  0  0  0  0  0  0  0  0  0  0
   12.3670   15.2390   18.0970 H   0  0  0  0  0  0  0  0  0  0  0  0
   10.7370   14.5120   18.0250 H   0  0  0  0  0  0  0  0  0  0  0  0
    7.7690   12.0150   23.2910 H   0  0  0  0  0  0  0  0  0  0  0  0
    8.5920   13.8240   25.5950 H   0  0  0  0  0  0  0  0  0  0  0  0
    8.0030   14.3890   24.0380 H   0  0  0  0  0  0  0  0  0  0  0  0
    6.0260   12.8710   24.6030 H   0  0  0  0  0  0  0  0  0  0  0  0
    6.1190   14.4040   25.0600 H   0  0  0  0  0  0  0  0  0  0  0  0
    8.7490   11.3960   26.0770 H   0  0  0  0  0  0  0  0  0  0  0  0
    7.2130   10.9650   25.3640 H   0  0  0  0  0  0  0  0  0  0  0  0
  1  2  1  0
  2  3  1  0
  3  4  1  0
  4  5  1  0
  5  6  1  0
  6  7  1  0
  7  8  2  0
  7  9  1  0
  9 10  2  0
 10 11  1  0
 11 12  2  0
 12 13  1  0
 12 14  1  0
  6 15  1  0
 15 16  1  0
 16 17  1  0
 15 18  1  0
 18  3  1  0
 14  9  1  0
  1 19  1  0
  1 20  1  0
  1 21  1  0
  3 22  1  1
  4 23  1  0
  4 24  1  0
  5 25  1  0
  5 26  1  0
 10 27  1  0
 11 28  1  0
 13 29  1  0
 13 30  1  0
 13 31  1  0
 15 32  1  6
 16 33  1  0
 16 34  1  0
 17 35  1  0
 17 36  1  0
 18 37  1  0
 18 38  1  0
A    1
 C1 
A    2
 O1 
A    3
 C2 
A    4
 C3 
A    5
 C4 
A    6
 N1 
A    7
 C5 
A    8
 O2 
A    9
 C6 
A   10
 C7 
A   11
 C8 
A   12
 C9 
A   13
 C10
A   14
 S1 
A   15
 C11
A   16
 C12
A   17
 N2 
A   18
 C13
A   19
 H1 
A   20
 H2 
A   21
 H3 
A   22
 H4 
A   23
 H5 
A   24
 H6 
A   25
 H7 
A   26
 H8 
A   27
 H9 
A   28
 H10
A   29
 H11
A   30
 H12
A   31
 H13
A   32
 H14
A   33
 H15
A   34
 H16
A   35
 H17
A   36
 H18
A   37
 H19
A   38
 H20
M  END
>  <ref_pdb>  (136) 
x0451_0A

>  <ref_mols>  (136) 
x0451_0A,x0554_0A,x0556_0A,x0566_0A,x0310_0A,x0416_0A

>  <original SMILES>  (136) 
CO[C@H]1CCN(C(=O)c2ccc(C)s2)[C@H](CN)C1

>  <rationale>  (136) 
info info set:ROCS-shape_Q1;Warhead nanÅ to Cys110:SG; hydroph_interaction:Y89; 

>  <∆∆G>  (136) 
-7.969482

>  <comRMSD>  (136) 
0.730213

>  <ROCS_TanimotoCombo>  (136) 
0.431

>  <ROCS_ShapeTanimoto>  (136) 
0.28

>  <ROCS_ColorTanimoto>  (136) 
0.15

>  <distance>  (136) 
nan

$$$$
Z1065887986
     RDKit          3D

 38 38  0  0  0  0  0  0  0  0999 V2000
   10.1950    9.0090   23.4110 C   0  0  0  0  0  0  0  0  0  0  0  0
    9.3510   10.1400   23.8570 C   0  0  0  0  0  0  0  0  0  0  0  0
    8.2570    9.8880   24.5830 N   0  0  0  0  0  0  0  0  0  0  0  0
    7.7140   11.1020   24.8230 N   0  0  0  0  0  0  0  0  0  0  0  0
    6.4830   11.1700   25.6220 C   0  0  0  0  0  0  0  0  0  0  0  0
    5.8550   12.5480   25.7860 C   0  0  0  0  0  0  0  0  0  0  0  0
    6.7340   10.6470   26.9430 C   0  0  0  0  0  0  0  0  0  0  0  0
    8.4340   12.1270   24.2600 C   0  0  0  0  0  0  0  0  0  0  0  0
    8.0380   13.5530   24.3690 C   0  0  0  0  0  0  0  0  0  0  0  0
    9.5150   11.5290   23.6350 C   0  0  0  0  0  0  0  0  0  0  0  0
   10.5310   12.1950   22.9360 N   0  0  0  0  0  0  0  0  0  0  0  0
   11.5070   13.4760   23.3940 S   0  0  0  0  0  6  0  0  0  0  0  0
   12.7950   12.9670   23.8040 O   0  0  0  0  0  0  0  0  0  0  0  0
   10.7030   14.2890   24.2840 O   0  0  0  0  0  0  0  0  0  0  0  0
   11.6290   14.3040   21.7900 C   0  0  0  0  0  0  0  0  0  0  0  0
   10.2690   14.7390   21.2560 C   0  0  0  0  0  0  0  0  0  0  0  0
   12.5390   15.4940   21.8430 C   0  0  0  0  0  0  0  0  0  0  0  0
   10.7090    9.2590   22.4780 H   0  0  0  0  0  0  0  0  0  0  0  0
   10.9360    8.7470   24.1690 H   0  0  0  0  0  0  0  0  0  0  0  0
    9.5890    8.1130   23.2290 H   0  0  0  0  0  0  0  0  0  0  0  0
    5.7680   10.4660   25.2230 H   0  0  0  0  0  0  0  0  0  0  0  0
    6.2340   13.0340   26.6900 H   0  0  0  0  0  0  0  0  0  0  0  0
    4.7650   12.4860   25.8740 H   0  0  0  0  0  0  0  0  0  0  0  0
    6.0820   13.1980   24.9400 H   0  0  0  0  0  0  0  0  0  0  0  0
    5.9300    9.9770   27.2730 H   0  0  0  0  0  0  0  0  0  0  0  0
    7.6530   10.0780   26.8960 H   0  0  0  0  0  0  0  0  0  0  0  0
    6.8400   11.4630   27.6650 H   0  0  0  0  0  0  0  0  0  0  0  0
    7.8490   13.8290   25.4100 H   0  0  0  0  0  0  0  0  0  0  0  0
    8.8120   14.2240   23.9890 H   0  0  0  0  0  0  0  0  0  0  0  0
    7.1330   13.7400   23.7820 H   0  0  0  0  0  0  0  0  0  0  0  0
   10.7890   11.8690   21.9940 H   0  0  0  0  0  0  0  0  0  0  0  0
   12.0790   13.5850   21.1070 H   0  0  0  0  0  0  0  0  0  0  0  0
    9.4530   14.2080   21.7550 H   0  0  0  0  0  0  0  0  0  0  0  0
   10.1080   15.8130   21.4040 H   0  0  0  0  0  0  0  0  0  0  0  0
   10.1950   14.5290   20.1860 H   0  0  0  0  0  0  0  0  0  0  0  0
   13.4310   15.2690   22.4200 H   0  0  0  0  0  0  0  0  0  0  0  0
   12.8550   15.7900   20.8380 H   0  0  0  0  0  0  0  0  0  0  0  0
   12.0270   16.3430   22.3010 H   0  0  0  0  0  0  0  0  0  0  0  0
  1  2  1  0
  2  3  2  0
  3  4  1  0
  4  5  1  0
  5  6  1  0
  5  7  1  0
  4  8  1  0
  8  9  1  0
  8 10  2  0
 10 11  1  0
 11 12  1  0
 12 13  2  0
 12 14  2  0
 12 15  1  0
 15 16  1  0
 15 17  1  0
 10  2  1  0
  1 18  1  0
  1 19  1  0
  1 20  1  0
  5 21  1  0
  6 22  1  0
  6 23  1  0
  6 24  1  0
  7 25  1  0
  7 26  1  0
  7 27  1  0
  9 28  1  0
  9 29  1  0
  9 30  1  0
 11 31  1  0
 15 32  1  0
 16 33  1  0
 16 34  1  0
 16 35  1  0
 17 36  1  0
 17 37  1  0
 17 38  1  0
A    1
 C1 
A    2
 C2 
A    3
 N1 
A    4
 N2 
A    5
 C3 
A    6
 C4 
A    7
 C5 
A    8
 C6 
A    9
 C7 
A   10
 C8 
A   11
 N3 
A   12
 S1 
A   13
 O1 
A   14
 O2 
A   15
 C9 
A   16
 C10
A   17
 C11
A   18
 H1 
A   19
 H2 
A   20
 H3 
A   21
 H4 
A   22
 H5 
A   23
 H6 
A   24
 H7 
A   25
 H8 
A   26
 H9 
A   27
 H10
A   28
 H11
A   29
 H12
A   30
 H13
A   31
 H14
A   32
 H15
A   33
 H16
A   34
 H17
A   35
 H18
A   36
 H19
A   37
 H20
A   38
 H21
M  END
>  <ref_pdb>  (137) 
x0451_0A

>  <ref_mols>  (137) 
x0451_0A,x0554_0A,x0556_0A,x0566_0A,x0310_0A,x0416_0A

>  <original SMILES>  (137) 
Cc1nn(C(C)C)c(C)c1NS(=O)(=O)C(C)C

>  <rationale>  (137) 
info info set:ROCS-shape_Q1;Warhead nanÅ to Cys110:SG; hbond:S125; hydroph_interaction:Y89+P107+V124+D109; 

>  <∆∆G>  (137) 
-7.962689

>  <comRMSD>  (137) 
0.61872

>  <ROCS_TanimotoCombo>  (137) 
0.444

>  <ROCS_ShapeTanimoto>  (137) 
0.318

>  <ROCS_ColorTanimoto>  (137) 
0.126

>  <distance>  (137) 
nan

$$$$
EN300_26664671
     RDKit          3D

 35 36  0  0  0  0  0  0  0  0999 V2000
   10.3960   15.6670   20.5090 C   0  0  0  0  0  0  0  0  0  0  0  0
   11.6990   15.1540   20.6050 C   0  0  0  0  0  0  0  0  0  0  0  0
   12.6260   15.8810   21.3000 C   0  0  0  0  0  0  0  0  0  0  0  0
   12.2230   14.7850   19.2210 C   0  0  0  0  0  0  0  0  0  0  0  0
   11.7130   14.1870   21.2930 O   0  0  0  0  0  0  0  0  0  0  0  0
   11.1760   14.1690   22.5210 C   0  0  0  0  0  0  0  0  0  0  0  0
   10.8230   15.1350   23.1920 O   0  0  0  0  0  0  0  0  0  0  0  0
   11.1300   12.8520   22.7960 N   0  0  0  0  0  0  0  0  0  0  0  0
   10.1430   12.1750   23.4830 C   0  0  0  0  0  0  0  0  0  0  0  0
   10.0510   10.6900   23.4450 C   0  0  0  0  0  0  0  0  0  0  0  0
    9.0070    9.8400   24.1540 C   0  0  0  0  0  0  0  0  0  0  0  0
    8.9170    8.4800   24.1270 O   0  0  0  0  0  0  0  0  0  0  0  0
    8.0020   10.6930   24.9540 C   0  0  0  0  0  0  0  0  0  0  0  0
    6.9820   10.1140   25.6610 N   0  0  0  0  0  0  0  0  0  0  0  0
    6.0850   10.8550   26.3820 C   0  0  0  0  0  0  0  0  0  0  0  0
    6.1040   12.2570   26.4740 C   0  0  0  0  0  0  0  0  0  0  0  0
    7.1130   12.8460   25.7710 C   0  0  0  0  0  0  0  0  0  0  0  0
    8.1390   12.0900   24.9560 C   0  0  0  0  0  0  0  0  0  0  0  0
    9.2090   12.8790   24.2230 C   0  0  0  0  0  0  0  0  0  0  0  0
   10.2000   16.3980   21.3010 H   0  0  0  0  0  0  0  0  0  0  0  0
    9.6610   14.8600   20.5950 H   0  0  0  0  0  0  0  0  0  0  0  0
   10.2420   16.1680   19.5460 H   0  0  0  0  0  0  0  0  0  0  0  0
   12.0930   16.7520   21.6690 H   0  0  0  0  0  0  0  0  0  0  0  0
   13.0340   15.2590   22.1000 H   0  0  0  0  0  0  0  0  0  0  0  0
   13.4700   16.1780   20.6890 H   0  0  0  0  0  0  0  0  0  0  0  0
   13.2310   15.1540   19.0750 H   0  0  0  0  0  0  0  0  0  0  0  0
   11.5860   15.1870   18.4260 H   0  0  0  0  0  0  0  0  0  0  0  0
   12.2690   13.7030   19.0840 H   0  0  0  0  0  0  0  0  0  0  0  0
   11.4630   12.3460   21.9770 H   0  0  0  0  0  0  0  0  0  0  0  0
   10.7870   10.1480   22.8610 H   0  0  0  0  0  0  0  0  0  0  0  0
    9.1720    8.1310   25.0040 H   0  0  0  0  0  0  0  0  0  0  0  0
    5.3200   10.2660   26.9020 H   0  0  0  0  0  0  0  0  0  0  0  0
    5.3780   12.8160   27.0540 H   0  0  0  0  0  0  0  0  0  0  0  0
    7.1860   13.9380   25.7990 H   0  0  0  0  0  0  0  0  0  0  0  0
    9.2350   13.9640   24.2820 H   0  0  0  0  0  0  0  0  0  0  0  0
  1  2  1  0
  2  3  1  0
  2  4  1  0
  2  5  1  0
  5  6  1  0
  6  7  2  0
  6  8  1  0
  8  9  1  0
  9 10  2  0
 10 11  1  0
 11 12  1  0
 11 13  2  0
 13 14  1  0
 14 15  2  0
 15 16  1  0
 16 17  2  0
 17 18  1  0
 18 19  2  0
 19  9  1  0
 18 13  1  0
  1 20  1  0
  1 21  1  0
  1 22  1  0
  3 23  1  0
  3 24  1  0
  3 25  1  0
  4 26  1  0
  4 27  1  0
  4 28  1  0
  8 29  1  0
 10 30  1  0
 12 31  1  0
 15 32  1  0
 16 33  1  0
 17 34  1  0
 19 35  1  0
A    1
 C1 
A    2
 C2 
A    3
 C3 
A    4
 C4 
A    5
 O1 
A    6
 C5 
A    7
 O2 
A    8
 N1 
A    9
 C6 
A   10
 C7 
A   11
 C8 
A   12
 O3 
A   13
 C9 
A   14
 N2 
A   15
 C10
A   16
 C11
A   17
 C12
A   18
 C13
A   19
 C14
A   20
 H1 
A   21
 H2 
A   22
 H3 
A   23
 H4 
A   24
 H5 
A   25
 H6 
A   26
 H7 
A   27
 H8 
A   28
 H9 
A   29
 H10
A   30
 H11
A   31
 H12
A   32
 H13
A   33
 H14
A   34
 H15
A   35
 H16
M  END
>  <ref_pdb>  (138) 
x0451_0A

>  <ref_mols>  (138) 
x0451_0A,x0554_0A,x0556_0A,x0566_0A,x0310_0A,x0416_0A

>  <original SMILES>  (138) 
CC(C)(C)OC(=O)Nc1cc(O)c2ncccc2c1

>  <rationale>  (138) 
info info set:ROCS-BB-1RB;Warhead nanÅ to Cys110:SG; hbond:S87+S125; hydroph_interaction:Y89+Y90; 

>  <∆∆G>  (138) 
-7.930445

>  <comRMSD>  (138) 
0.453764

>  <ROCS_TanimotoCombo>  (138) 
0.514

>  <ROCS_ShapeTanimoto>  (138) 
0.35

>  <ROCS_ColorTanimoto>  (138) 
0.165

>  <distance>  (138) 
nan

$$$$
EN300_624595
     RDKit          3D

 35 36  0  0  0  0  0  0  0  0999 V2000
   10.6000   15.8080   22.0920 C   0  0  0  0  0  0  0  0  0  0  0  0
   11.3260   14.5630   21.7310 C   0  0  0  0  0  0  0  0  0  0  0  0
   12.4590   14.3060   22.4680 C   0  0  0  0  0  0  0  0  0  0  0  0
   11.7550   14.3510   20.4400 C   0  0  0  0  0  0  0  0  0  0  0  0
   10.3870   13.5480   22.1630 O   0  0  0  0  0  0  0  0  0  0  0  0
   10.3270   13.2540   23.4900 C   0  0  0  0  0  0  0  0  0  0  0  0
   10.7490   13.9840   24.3770 O   0  0  0  0  0  0  0  0  0  0  0  0
    9.7060   12.0190   23.7710 N   0  0  0  0  0  0  0  0  0  0  0  0
   10.0160   10.7620   23.3370 C   0  0  0  0  0  0  0  0  0  0  0  0
    9.0900    9.7390   23.8920 C   0  0  0  0  0  0  0  0  0  0  0  0
    9.4260    8.3140   23.4260 C   0  0  0  0  0  0  0  0  0  0  0  0
    8.3330    7.5010   22.7380 C   0  0  0  0  0  0  0  0  0  0  0  0
    8.4710    6.0700   22.9630 N   0  0  0  0  0  0  0  0  0  0  0  0
    8.1840   10.4670   24.7020 C   0  0  0  0  0  0  0  0  0  0  0  0
    6.9960   10.1500   25.5690 C   0  0  0  0  0  0  0  0  0  0  0  0
    6.2940   11.1110   26.2580 C   0  0  0  0  0  0  0  0  0  0  0  0
    5.2370   10.8000   27.0200 F   0  0  0  0  0  0  0  0  0  0  0  0
    6.7450   12.5120   26.1320 C   0  0  0  0  0  0  0  0  0  0  0  0
    7.8250   12.9860   25.3750 C   0  0  0  0  0  0  0  0  0  0  0  0
    8.5720   11.8570   24.6200 C   0  0  0  0  0  0  0  0  0  0  0  0
   10.4850   15.8980   23.1760 H   0  0  0  0  0  0  0  0  0  0  0  0
    9.6000   15.8160   21.6480 H   0  0  0  0  0  0  0  0  0  0  0  0
   11.1650   16.6690   21.7240 H   0  0  0  0  0  0  0  0  0  0  0  0
   13.2840   14.9660   22.2300 H   0  0  0  0  0  0  0  0  0  0  0  0
   12.9220   13.3450   22.6100 H   0  0  0  0  0  0  0  0  0  0  0  0
   12.2140   14.5920   23.4910 H   0  0  0  0  0  0  0  0  0  0  0  0
   12.4810   13.5510   20.3950 H   0  0  0  0  0  0  0  0  0  0  0  0
   10.9180   14.1020   19.7840 H   0  0  0  0  0  0  0  0  0  0  0  0
   12.2320   15.2400   20.0130 H   0  0  0  0  0  0  0  0  0  0  0  0
   10.8540   10.5560   22.6630 H   0  0  0  0  0  0  0  0  0  0  0  0
    8.3600    5.4950   22.1330 H   0  0  0  0  0  0  0  0  0  0  0  0
    9.3640    5.8060   23.3690 H   0  0  0  0  0  0  0  0  0  0  0  0
    6.6600    9.1220   25.6690 H   0  0  0  0  0  0  0  0  0  0  0  0
    6.1720   13.2620   26.6900 H   0  0  0  0  0  0  0  0  0  0  0  0
    8.0910   14.0400   25.3360 H   0  0  0  0  0  0  0  0  0  0  0  0
  1  2  1  0
  2  3  1  0
  2  4  1  0
  2  5  1  0
  5  6  1  0
  6  7  2  0
  6  8  1  0
  8  9  1  0
  9 10  2  0
 10 11  1  0
 11 12  3  0
 12 13  1  0
 10 14  1  0
 14 15  2  0
 15 16  1  0
 16 17  1  0
 16 18  2  0
 18 19  1  0
 19 20  2  0
 20  8  1  0
 20 14  1  0
  1 21  1  0
  1 22  1  0
  1 23  1  0
  3 24  1  0
  3 25  1  0
  3 26  1  0
  4 27  1  0
  4 28  1  0
  4 29  1  0
  9 30  1  0
 13 31  1  0
 13 32  1  0
 15 33  1  0
 18 34  1  0
 19 35  1  0
A    1
 C1 
A    2
 C2 
A    3
 C3 
A    4
 C4 
A    5
 O1 
A    6
 C5 
A    7
 O2 
A    8
 N1 
A    9
 C6 
A   10
 C7 
A   11
 C8 
A   12
 C9 
A   13
 N2 
A   14
 C10
A   15
 C11
A   16
 C12
A   17
 F1 
A   18
 C13
A   19
 C14
A   20
 C15
A   21
 H1 
A   22
 H2 
A   23
 H3 
A   24
 H4 
A   25
 H5 
A   26
 H6 
A   27
 H7 
A   28
 H8 
A   29
 H9 
A   30
 H10
A   31
 H11
A   32
 H12
A   33
 H13
A   34
 H14
A   35
 H15
M  END
>  <ref_pdb>  (139) 
x0451_0A

>  <ref_mols>  (139) 
x0451_0A,x0554_0A,x0556_0A,x0566_0A,x0310_0A,x0416_0A

>  <original SMILES>  (139) 
CC(C)(C)OC(=O)n1cc(C#CN)c2cc(F)ccc21

>  <rationale>  (139) 
info info set:ROCS-BB-0RB;Warhead nanÅ to Cys110:SG; hbond:D109; hydroph_interaction:Y89+V124+D109; 

>  <∆∆G>  (139) 
-7.905446

>  <comRMSD>  (139) 
0.444217

>  <ROCS_TanimotoCombo>  (139) 
0.483

>  <ROCS_ShapeTanimoto>  (139) 
0.349

>  <ROCS_ColorTanimoto>  (139) 
0.133

>  <distance>  (139) 
nan

$$$$
EN300_26664831
     RDKit          3D

 34 34  0  0  0  0  0  0  0  0999 V2000
    6.5970   12.8860   25.9480 C   0  0  0  0  0  0  0  0  0  0  0  0
    7.5900   12.0870   25.1830 C   0  0  0  0  0  0  0  0  0  0  0  0
    7.4080   10.6650   25.2690 N   0  0  0  0  0  0  0  0  0  0  0  0
    8.2670    9.8230   24.5970 C   0  0  0  0  0  0  0  0  0  0  0  0
    8.1710    8.6140   24.6380 O   0  0  0  0  0  0  0  0  0  0  0  0
    9.3040   10.3640   23.8380 C   0  0  0  0  0  0  0  0  0  0  0  0
   10.2150    9.3740   23.1140 C   0  0  0  0  0  0  0  0  0  0  0  0
    9.4480   11.7500   23.7890 C   0  0  0  0  0  0  0  0  0  0  0  0
   10.4690   12.2550   23.0620 N   0  0  0  0  0  0  0  0  0  0  0  0
   11.0920   13.4380   23.2640 C   0  0  0  0  0  0  0  0  0  0  0  0
   11.0180   14.2170   24.1970 O   0  0  0  0  0  0  0  0  0  0  0  0
   11.8700   13.6500   22.1940 O   0  0  0  0  0  0  0  0  0  0  0  0
   11.5390   14.6960   21.2500 C   0  0  0  0  0  0  0  0  0  0  0  0
   11.9530   15.9160   22.0020 C   0  0  0  0  0  0  0  0  0  0  0  0
   10.0480   14.8120   20.9770 C   0  0  0  0  0  0  0  0  0  0  0  0
   12.3410   14.6500   19.9560 C   0  0  0  0  0  0  0  0  0  0  0  0
    8.5560   12.6670   24.4860 N   0  0  0  0  0  0  0  0  0  0  0  0
    5.8620   12.2390   26.4310 H   0  0  0  0  0  0  0  0  0  0  0  0
    7.1080   13.4820   26.7110 H   0  0  0  0  0  0  0  0  0  0  0  0
    6.0510   13.5520   25.2730 H   0  0  0  0  0  0  0  0  0  0  0  0
    8.8690    8.4130   25.2990 H   0  0  0  0  0  0  0  0  0  0  0  0
   10.9170    8.8540   23.7550 H   0  0  0  0  0  0  0  0  0  0  0  0
   10.8530    9.8220   22.3560 H   0  0  0  0  0  0  0  0  0  0  0  0
    9.7090    8.5850   22.5590 H   0  0  0  0  0  0  0  0  0  0  0  0
   10.6920   11.8630   22.1500 H   0  0  0  0  0  0  0  0  0  0  0  0
   11.6080   15.8850   23.0380 H   0  0  0  0  0  0  0  0  0  0  0  0
   13.0460   15.9460   21.9970 H   0  0  0  0  0  0  0  0  0  0  0  0
   11.6060   16.8340   21.5320 H   0  0  0  0  0  0  0  0  0  0  0  0
    9.4880   14.0240   21.4900 H   0  0  0  0  0  0  0  0  0  0  0  0
    9.6470   15.7650   21.3360 H   0  0  0  0  0  0  0  0  0  0  0  0
    9.8180   14.7400   19.9130 H   0  0  0  0  0  0  0  0  0  0  0  0
   13.2440   15.2450   20.0450 H   0  0  0  0  0  0  0  0  0  0  0  0
   11.7640   15.0760   19.1270 H   0  0  0  0  0  0  0  0  0  0  0  0
   12.5990   13.6310   19.6610 H   0  0  0  0  0  0  0  0  0  0  0  0
  1  2  1  0
  2  3  2  0
  3  4  1  0
  4  5  1  0
  4  6  2  0
  6  7  1  0
  6  8  1  0
  8  9  1  0
  9 10  1  0
 10 11  2  0
 10 12  1  0
 12 13  1  0
 13 14  1  0
 13 15  1  0
 13 16  1  0
  8 17  2  0
 17  2  1  0
  1 18  1  0
  1 19  1  0
  1 20  1  0
  5 21  1  0
  7 22  1  0
  7 23  1  0
  7 24  1  0
  9 25  1  0
 14 26  1  0
 14 27  1  0
 14 28  1  0
 15 29  1  0
 15 30  1  0
 15 31  1  0
 16 32  1  0
 16 33  1  0
 16 34  1  0
A    1
 C1 
A    2
 C2 
A    3
 N1 
A    4
 C3 
A    5
 O1 
A    6
 C4 
A    7
 C5 
A    8
 C6 
A    9
 N2 
A   10
 C7 
A   11
 O2 
A   12
 O3 
A   13
 C8 
A   14
 C9 
A   15
 C10
A   16
 C11
A   17
 N3 
A   18
 H1 
A   19
 H2 
A   20
 H3 
A   21
 H4 
A   22
 H5 
A   23
 H6 
A   24
 H7 
A   25
 H8 
A   26
 H9 
A   27
 H10
A   28
 H11
A   29
 H12
A   30
 H13
A   31
 H14
A   32
 H15
A   33
 H16
A   34
 H17
M  END
>  <ref_pdb>  (140) 
x0451_0A

>  <ref_mols>  (140) 
x0451_0A,x0554_0A,x0556_0A,x0566_0A,x0310_0A,x0416_0A

>  <original SMILES>  (140) 
Cc1nc(O)c(C)c(NC(=O)OC(C)(C)C)n1

>  <rationale>  (140) 
info info set:ROCS-BB-1RB;Warhead nanÅ to Cys110:SG; hbond:S125; hydroph_interaction:Y89+Y90+V124; 

>  <∆∆G>  (140) 
-7.902318

>  <comRMSD>  (140) 
0.457513

>  <ROCS_TanimotoCombo>  (140) 
0.511

>  <ROCS_ShapeTanimoto>  (140) 
0.334

>  <ROCS_ColorTanimoto>  (140) 
0.176

>  <distance>  (140) 
nan

$$$$
Z3755879994
     RDKit          3D

 49 51  0  0  0  0  0  0  0  0999 V2000
    8.4970   19.7480   19.0550 C   0  0  0  0  0  0  0  0  0  0  0  0
    8.8200   18.2840   19.0170 C   0  0  0  0  0  0  0  0  0  0  0  0
    9.0440   17.3850   20.2240 C   0  0  0  0  0  0  0  0  0  0  0  0
    8.9150   17.8160   21.3460 O   0  0  0  0  0  0  0  0  0  0  0  0
    9.3510   16.0810   19.9400 N   0  0  0  0  0  0  0  0  0  0  0  0
   10.2400   15.4570   20.8610 C   0  0  0  0  0  0  0  0  0  0  0  0
   11.5580   15.6030   20.5350 C   0  0  0  0  0  0  0  0  0  0  0  0
   12.5110   15.0120   21.4210 C   0  0  0  0  0  0  0  0  0  0  0  0
   12.1300   14.3030   22.5580 C   0  0  0  0  0  0  0  0  0  0  0  0
   10.7670   14.1920   22.8270 C   0  0  0  0  0  0  0  0  0  0  0  0
   10.3450   13.5020   23.9490 C   0  0  0  0  0  0  0  0  0  0  0  0
   10.5200   14.0690   25.0240 O   0  0  0  0  0  0  0  0  0  0  0  0
    9.7880   12.2370   23.7780 N   0  0  0  0  0  0  0  0  0  0  0  0
   10.6750   11.2350   23.5280 C   0  0  0  0  0  0  0  0  0  0  0  0
   10.2940    9.8400   23.1370 C   0  0  0  0  0  0  0  0  0  0  0  0
    9.0900    9.4460   23.8510 N   0  0  0  0  0  0  0  0  0  0  0  0
    8.7210    8.0620   23.6280 C   0  0  0  0  0  0  0  0  0  0  0  0
    8.3360   10.4120   24.5870 C   0  0  0  0  0  0  0  0  0  0  0  0
    7.1900   10.0310   25.4160 C   0  0  0  0  0  0  0  0  0  0  0  0
    6.3910   11.0740   26.1930 C   0  0  0  0  0  0  0  0  0  0  0  0
    6.7540   12.4000   26.1190 C   0  0  0  0  0  0  0  0  0  0  0  0
    6.0340   13.3670   26.8260 C   0  0  0  0  0  0  0  0  0  0  0  0
    5.5180   14.3520   26.3220 O   0  0  0  0  0  0  0  0  0  0  0  0
    6.0000   13.0460   28.1480 O   0  0  0  0  0  0  0  0  0  0  0  0
    5.3040   13.9910   28.9620 C   0  0  0  0  0  0  0  0  0  0  0  0
    7.8560   12.7790   25.3310 C   0  0  0  0  0  0  0  0  0  0  0  0
    8.6600   11.8020   24.5610 C   0  0  0  0  0  0  0  0  0  0  0  0
    9.8160   14.7660   21.9880 C   0  0  0  0  0  0  0  0  0  0  0  0
    8.4240   20.3040   19.9900 H   0  0  0  0  0  0  0  0  0  0  0  0
    8.3320   20.2870   18.1340 H   0  0  0  0  0  0  0  0  0  0  0  0
    8.8850   17.8300   18.0200 H   0  0  0  0  0  0  0  0  0  0  0  0
    9.5130   15.8380   18.9670 H   0  0  0  0  0  0  0  0  0  0  0  0
   11.8560   16.1440   19.6470 H   0  0  0  0  0  0  0  0  0  0  0  0
   13.5350   15.1370   21.1800 H   0  0  0  0  0  0  0  0  0  0  0  0
   12.9020   13.8750   23.1860 H   0  0  0  0  0  0  0  0  0  0  0  0
   11.3200   11.5770   22.7070 H   0  0  0  0  0  0  0  0  0  0  0  0
   11.3140   11.2500   24.4060 H   0  0  0  0  0  0  0  0  0  0  0  0
   11.0310    9.0980   23.4110 H   0  0  0  0  0  0  0  0  0  0  0  0
   10.0700    9.7320   22.0880 H   0  0  0  0  0  0  0  0  0  0  0  0
    7.8970    7.9800   22.9190 H   0  0  0  0  0  0  0  0  0  0  0  0
    8.4590    7.5670   24.5680 H   0  0  0  0  0  0  0  0  0  0  0  0
    9.5510    7.5260   23.1590 H   0  0  0  0  0  0  0  0  0  0  0  0
    6.8670    9.0180   25.5140 H   0  0  0  0  0  0  0  0  0  0  0  0
    5.5480   10.7520   26.7950 H   0  0  0  0  0  0  0  0  0  0  0  0
    4.2210   13.8810   28.8380 H   0  0  0  0  0  0  0  0  0  0  0  0
    5.5550   13.7920   30.0040 H   0  0  0  0  0  0  0  0  0  0  0  0
    5.6220   15.0110   28.7180 H   0  0  0  0  0  0  0  0  0  0  0  0
    8.1040   13.8360   25.3080 H   0  0  0  0  0  0  0  0  0  0  0  0
    8.7620   14.6610   22.2310 H   0  0  0  0  0  0  0  0  0  0  0  0
  1  2  2  0
  2  3  1  0
  3  4  2  0
  3  5  1  0
  5  6  1  0
  6  7  2  0
  7  8  1  0
  8  9  2  0
  9 10  1  0
 10 11  1  0
 11 12  2  0
 11 13  1  0
 13 14  1  0
 14 15  1  0
 15 16  1  0
 16 17  1  0
 16 18  1  0
 18 19  2  0
 19 20  1  0
 20 21  2  0
 21 22  1  0
 22 23  2  0
 22 24  1  0
 24 25  1  0
 21 26  1  0
 26 27  2  0
 10 28  2  0
 28  6  1  0
 27 13  1  0
 27 18  1  0
  1 29  1  0
  1 30  1  0
  2 31  1  0
  5 32  1  0
  7 33  1  0
  8 34  1  0
  9 35  1  0
 14 36  1  0
 14 37  1  0
 15 38  1  0
 15 39  1  0
 17 40  1  0
 17 41  1  0
 17 42  1  0
 19 43  1  0
 20 44  1  0
 25 45  1  0
 25 46  1  0
 25 47  1  0
 26 48  1  0
 28 49  1  0
A    1
 C1 
A    2
 C2 
A    3
 C3 
A    4
 O1 
A    5
 N1 
A    6
 C4 
A    7
 C5 
A    8
 C6 
A    9
 C7 
A   10
 C8 
A   11
 C9 
A   12
 O2 
A   13
 N2 
A   14
 C10
A   15
 C11
A   16
 N3 
A   17
 C12
A   18
 C13
A   19
 C14
A   20
 C15
A   21
 C16
A   22
 C17
A   23
 O3 
A   24
 O4 
A   25
 C18
A   26
 C19
A   27
 C20
A   28
 C21
A   29
 H1 
A   30
 H2 
A   31
 H3 
A   32
 H4 
A   33
 H5 
A   34
 H6 
A   35
 H7 
A   36
 H8 
A   37
 H9 
A   38
 H10
A   39
 H11
A   40
 H12
A   41
 H13
A   42
 H14
A   43
 H15
A   44
 H16
A   45
 H17
A   46
 H18
A   47
 H19
A   48
 H20
A   49
 H21
M  END
>  <ref_pdb>  (141) 
x0451_0A

>  <ref_mols>  (141) 
x0451_0A,x0554_0A,x0556_0A,x0566_0A,x0310_0A,x0416_0A

>  <original SMILES>  (141) 
C=CC(=O)Nc1cccc(C(=O)N2CCN(C)c3ccc(C(=O)OC)cc32)c1

>  <rationale>  (141) 
info info set:ROCS-cov2;Warhead 11.174619317005837Å to Cys110:SG; hbond:T126; hydroph_interaction:Y89+Y90+V84; pistack:H21; 

>  <∆∆G>  (141) 
-7.896647

>  <comRMSD>  (141) 
0.662285

>  <ROCS_TanimotoCombo>  (141) 
0.523

>  <ROCS_ShapeTanimoto>  (141) 
0.371

>  <ROCS_ColorTanimoto>  (141) 
0.152

>  <distance>  (141) 
11.174619

$$$$
EN300_230364
     RDKit          3D

 29 30  0  0  0  0  0  0  0  0999 V2000
    9.4920    8.1110   23.0730 C   0  0  0  0  0  0  0  0  0  0  0  0
    9.2420    9.4870   23.6220 C   0  0  0  0  0  0  0  0  0  0  0  0
   10.1710   10.6250   23.2150 C   0  0  0  0  0  0  0  0  0  0  0  0
    9.7290   11.9290   23.8840 C   0  0  0  0  0  0  0  0  0  0  0  0
   10.5520   13.1750   23.5680 C   0  0  0  0  0  0  0  0  0  0  0  0
   10.7920   14.0690   24.3740 O   0  0  0  0  0  0  0  0  0  0  0  0
   11.0630   13.3640   22.3110 N   0  0  0  0  0  0  0  0  0  0  0  0
   11.8600   14.5010   22.0550 N   0  0  0  0  0  0  0  0  0  0  0  0
    8.6210   11.9580   24.7370 C   0  0  0  0  0  0  0  0  0  0  0  0
    7.8530   12.9300   25.5760 C   0  0  0  0  0  0  0  0  0  0  0  0
    8.1120   14.4210   25.7670 C   0  0  0  0  0  0  0  0  0  0  0  0
    6.8100   12.3690   26.2270 N   0  0  0  0  0  0  0  0  0  0  0  0
    6.8950   11.0820   25.8230 N   0  0  0  0  0  0  0  0  0  0  0  0
    5.9210   10.1610   26.3160 C   0  0  0  0  0  0  0  0  0  0  0  0
    7.9270   10.7810   24.9590 C   0  0  0  0  0  0  0  0  0  0  0  0
    8.1840    9.5730   24.4460 N   0  0  0  0  0  0  0  0  0  0  0  0
    8.9300    7.3650   23.6450 H   0  0  0  0  0  0  0  0  0  0  0  0
   10.5570    7.9020   23.1490 H   0  0  0  0  0  0  0  0  0  0  0  0
    9.1920    8.0390   22.0380 H   0  0  0  0  0  0  0  0  0  0  0  0
   11.0230   10.5370   22.5450 H   0  0  0  0  0  0  0  0  0  0  0  0
   11.1150   12.5930   21.6360 H   0  0  0  0  0  0  0  0  0  0  0  0
   12.0460   14.4960   21.0430 H   0  0  0  0  0  0  0  0  0  0  0  0
   12.7920   14.3090   22.4480 H   0  0  0  0  0  0  0  0  0  0  0  0
    9.0720   14.5300   26.2810 H   0  0  0  0  0  0  0  0  0  0  0  0
    8.1070   15.1530   24.9700 H   0  0  0  0  0  0  0  0  0  0  0  0
    7.3530   14.7700   26.4760 H   0  0  0  0  0  0  0  0  0  0  0  0
    6.3310    9.6410   27.1770 H   0  0  0  0  0  0  0  0  0  0  0  0
    5.0360   10.7180   26.5880 H   0  0  0  0  0  0  0  0  0  0  0  0
    5.6800    9.4520   25.5370 H   0  0  0  0  0  0  0  0  0  0  0  0
  1  2  1  0
  2  3  2  0
  3  4  1  0
  4  5  1  0
  5  6  2  0
  5  7  1  0
  7  8  1  0
  4  9  2  0
  9 10  1  0
 10 11  1  0
 10 12  2  0
 12 13  1  0
 13 14  1  0
 13 15  1  0
 15 16  2  0
 16  2  1  0
 15  9  1  0
  1 17  1  0
  1 18  1  0
  1 19  1  0
  3 20  1  0
  7 21  1  0
  8 22  1  0
  8 23  1  0
 11 24  1  0
 11 25  1  0
 11 26  1  0
 14 27  1  0
 14 28  1  0
 14 29  1  0
A    1
 C1 
A    2
 C2 
A    3
 C3 
A    4
 C4 
A    5
 C5 
A    6
 O1 
A    7
 N1 
A    8
 N2 
A    9
 C6 
A   10
 C7 
A   11
 C8 
A   12
 N3 
A   13
 N4 
A   14
 C9 
A   15
 C10
A   16
 N5 
A   17
 H1 
A   18
 H2 
A   19
 H3 
A   20
 H4 
A   21
 H5 
A   22
 H6 
A   23
 H7 
A   24
 H8 
A   25
 H9 
A   26
 H10
A   27
 H11
A   28
 H12
A   29
 H13
M  END
>  <ref_pdb>  (142) 
x0451_0A

>  <ref_mols>  (142) 
x0451_0A,x0554_0A,x0556_0A,x0566_0A,x0310_0A,x0416_0A

>  <original SMILES>  (142) 
Cc1cc(C(=O)NN)c2c(C)nn(C)c2n1

>  <rationale>  (142) 
info info set:ROCS-BB-1RB;Warhead nanÅ to Cys110:SG; hbond:S125; hydroph_interaction:V124+D109; 

>  <∆∆G>  (142) 
-7.885157

>  <comRMSD>  (142) 
0.320541

>  <ROCS_TanimotoCombo>  (142) 
0.523

>  <ROCS_ShapeTanimoto>  (142) 
0.32

>  <ROCS_ColorTanimoto>  (142) 
0.202

>  <distance>  (142) 
nan

$$$$
Z3687611413
     RDKit          3D

 34 36  0  0  0  0  0  0  0  0999 V2000
    9.7480    8.8370   23.0530 C   0  0  0  0  0  0  0  0  0  0  0  0
    9.2760    9.9270   23.7560 N   0  0  0  0  0  0  0  0  0  0  0  0
    8.0220    9.9130   24.4440 N   0  0  0  0  0  0  0  0  0  0  0  0
    7.8660   11.1520   25.0300 C   0  0  0  0  0  0  0  0  0  0  0  0
    6.7390   11.4540   25.7760 C   0  0  0  0  0  0  0  0  0  0  0  0
    6.0350   10.3740   26.5620 C   0  0  0  0  0  0  0  0  0  0  0  0
    4.8060   10.6470   27.3870 C   0  0  0  0  0  0  0  0  0  0  0  0
    4.3130   12.0040   27.3980 C   0  0  0  0  0  0  0  0  0  0  0  0
    5.0110   13.1260   26.6060 C   0  0  0  0  0  0  0  0  0  0  0  0
    6.2370   12.7590   25.8100 C   0  0  0  0  0  0  0  0  0  0  0  0
    8.9560   11.9980   24.7670 C   0  0  0  0  0  0  0  0  0  0  0  0
    9.8590   11.2170   23.9550 C   0  0  0  0  0  0  0  0  0  0  0  0
   11.0900   11.5400   23.4120 C   0  0  0  0  0  0  0  0  0  0  0  0
   10.9060   12.6990   22.6720 N   0  0  0  0  0  0  0  0  0  0  0  0
   10.9090   13.9460   23.2190 C   0  0  0  0  0  0  0  0  0  0  0  0
   10.9950   14.1960   24.4170 O   0  0  0  0  0  0  0  0  0  0  0  0
   10.7930   15.0410   22.2280 C   0  0  2  0  0  0  0  0  0  0  0  0
   12.0020   15.5930   21.5120 C   0  0  0  0  0  0  0  0  0  0  0  0
   11.3920   16.2830   22.6170 O   0  0  0  0  0  0  0  0  0  0  0  0
    8.9460    8.1090   22.8920 H   0  0  0  0  0  0  0  0  0  0  0  0
   10.1190    9.1810   22.0840 H   0  0  0  0  0  0  0  0  0  0  0  0
   10.5600    8.3610   23.6050 H   0  0  0  0  0  0  0  0  0  0  0  0
    6.3340    9.3400   26.6060 H   0  0  0  0  0  0  0  0  0  0  0  0
    4.3680    9.8060   27.9200 H   0  0  0  0  0  0  0  0  0  0  0  0
    3.4270   12.2380   27.9800 H   0  0  0  0  0  0  0  0  0  0  0  0
    4.6370   14.1470   26.6180 H   0  0  0  0  0  0  0  0  0  0  0  0
    6.6850   13.6010   25.2710 H   0  0  0  0  0  0  0  0  0  0  0  0
    9.2470   13.0230   25.0170 H   0  0  0  0  0  0  0  0  0  0  0  0
   11.4840   10.8350   22.7060 H   0  0  0  0  0  0  0  0  0  0  0  0
   11.9110   11.6940   24.1140 H   0  0  0  0  0  0  0  0  0  0  0  0
   11.0260   12.6140   21.6660 H   0  0  0  0  0  0  0  0  0  0  0  0
    9.8250   15.0620   21.7140 H   0  0  0  0  0  0  0  0  0  0  0  0
   12.9640   15.1330   21.6790 H   0  0  0  0  0  0  0  0  0  0  0  0
   11.8550   15.9890   20.5080 H   0  0  0  0  0  0  0  0  0  0  0  0
  1  2  1  0
  2  3  1  0
  3  4  2  0
  4  5  1  0
  5  6  2  0
  6  7  1  0
  7  8  2  0
  8  9  1  0
  9 10  2  0
  4 11  1  0
 11 12  2  0
 12 13  1  0
 13 14  1  0
 14 15  1  0
 15 16  2  0
 15 17  1  0
 17 18  1  0
 18 19  1  0
 12  2  1  0
 19 17  1  0
 10  5  1  0
  1 20  1  0
  1 21  1  0
  1 22  1  0
  6 23  1  0
  7 24  1  0
  8 25  1  0
  9 26  1  0
 10 27  1  0
 11 28  1  0
 13 29  1  0
 13 30  1  0
 14 31  1  0
 17 32  1  6
 18 33  1  0
 18 34  1  0
A    1
 C1 
A    2
 N1 
A    3
 N2 
A    4
 C2 
A    5
 C3 
A    6
 C4 
A    7
 C5 
A    8
 C6 
A    9
 C7 
A   10
 C8 
A   11
 C9 
A   12
 C10
A   13
 C11
A   14
 N3 
A   15
 C12
A   16
 O1 
A   17
 C13
A   18
 C14
A   19
 O2 
A   20
 H1 
A   21
 H2 
A   22
 H3 
A   23
 H4 
A   24
 H5 
A   25
 H6 
A   26
 H7 
A   27
 H8 
A   28
 H9 
A   29
 H10
A   30
 H11
A   31
 H12
A   32
 H13
A   33
 H14
A   34
 H15
M  END
>  <ref_pdb>  (143) 
x0451_0A

>  <ref_mols>  (143) 
x0451_0A,x0554_0A,x0556_0A,x0566_0A,x0310_0A,x0416_0A

>  <original SMILES>  (143) 
Cn1nc(-c2ccccc2)cc1CNC(=O)[C@@H]1CO1

>  <rationale>  (143) 
info info set:ROCS-cov2;Warhead 6.036571169132358Å to Cys110:SG; hbond:S87+S125; 

>  <∆∆G>  (143) 
-7.879689

>  <comRMSD>  (143) 
0.401754

>  <ROCS_TanimotoCombo>  (143) 
0.527

>  <ROCS_ShapeTanimoto>  (143) 
0.334

>  <ROCS_ColorTanimoto>  (143) 
0.194

>  <distance>  (143) 
6.036571

$$$$
EN300_28294316
     RDKit          3D

 34 35  0  0  0  0  0  0  0  0999 V2000
    9.9300   14.8600   21.1020 C   0  0  0  0  0  0  0  0  0  0  0  0
   11.4050   14.9600   21.2910 C   0  0  0  0  0  0  0  0  0  0  0  0
   11.8670   16.0240   22.0010 C   0  0  0  0  0  0  0  0  0  0  0  0
   12.1480   14.8900   19.9360 C   0  0  0  0  0  0  0  0  0  0  0  0
   11.7550   13.8210   22.1000 O   0  0  0  0  0  0  0  0  0  0  0  0
   11.0660   13.5250   23.2180 C   0  0  0  0  0  0  0  0  0  0  0  0
   10.8670   14.2500   24.1840 O   0  0  0  0  0  0  0  0  0  0  0  0
   10.6000   12.1600   23.0430 N   0  0  0  0  0  0  0  0  0  0  0  0
    9.5580   11.6210   23.7620 C   0  0  0  0  0  0  0  0  0  0  0  0
    8.6270   12.5520   24.4890 C   0  0  0  0  0  0  0  0  0  0  0  0
    7.5340   11.9440   25.2480 C   0  0  0  0  0  0  0  0  0  0  0  0
    6.6180   12.9120   25.9710 C   0  0  0  0  0  0  0  0  0  0  0  0
    5.5000   12.2160   26.7420 C   0  0  0  0  0  0  0  0  0  0  0  0
    5.3880   10.7190   26.7360 C   0  0  0  0  0  0  0  0  0  0  0  0
    6.4100    9.9570   25.9460 C   0  0  0  0  0  0  0  0  0  0  0  0
    7.4280   10.5310   25.2400 C   0  0  0  0  0  0  0  0  0  0  0  0
    8.2730    9.7280   24.5750 N   0  0  0  0  0  0  0  0  0  0  0  0
    9.2870   10.2690   23.8750 C   0  0  0  0  0  0  0  0  0  0  0  0
   10.3910    9.0170   23.0110 Br  0  0  0  0  0  0  0  0  0  0  0  0
    9.4330   15.7480   21.5100 H   0  0  0  0  0  0  0  0  0  0  0  0
    9.5150   13.9890   21.6170 H   0  0  0  0  0  0  0  0  0  0  0  0
    9.6930   14.7650   20.0410 H   0  0  0  0  0  0  0  0  0  0  0  0
   12.9420   16.0760   22.0970 H   0  0  0  0  0  0  0  0  0  0  0  0
   11.4580   16.0060   23.0160 H   0  0  0  0  0  0  0  0  0  0  0  0
   11.5300   16.9460   21.5300 H   0  0  0  0  0  0  0  0  0  0  0  0
   13.1260   15.3530   19.9500 H   0  0  0  0  0  0  0  0  0  0  0  0
   12.3050   13.8560   19.6150 H   0  0  0  0  0  0  0  0  0  0  0  0
   11.5630   15.3750   19.1480 H   0  0  0  0  0  0  0  0  0  0  0  0
   10.8310   11.7700   22.1270 H   0  0  0  0  0  0  0  0  0  0  0  0
    8.8250   13.6270   24.4080 H   0  0  0  0  0  0  0  0  0  0  0  0
    6.8090   13.9890   25.8950 H   0  0  0  0  0  0  0  0  0  0  0  0
    4.7210   12.7050   27.3390 H   0  0  0  0  0  0  0  0  0  0  0  0
    4.5630   10.2850   27.3110 H   0  0  0  0  0  0  0  0  0  0  0  0
    6.2470    8.9110   26.0010 H   0  0  0  0  0  0  0  0  0  0  0  0
  1  2  1  0
  2  3  1  0
  2  4  1  0
  2  5  1  0
  5  6  1  0
  6  7  2  0
  6  8  1  0
  8  9  1  0
  9 10  2  0
 10 11  1  0
 11 12  2  0
 12 13  1  0
 13 14  2  0
 14 15  1  0
 15 16  2  0
 16 17  1  0
 17 18  2  0
 18 19  1  0
 18  9  1  0
 16 11  1  0
  1 20  1  0
  1 21  1  0
  1 22  1  0
  3 23  1  0
  3 24  1  0
  3 25  1  0
  4 26  1  0
  4 27  1  0
  4 28  1  0
  8 29  1  0
 10 30  1  0
 12 31  1  0
 13 32  1  0
 14 33  1  0
 15 34  1  0
A    1
 C1 
A    2
 C2 
A    3
 C3 
A    4
 C4 
A    5
 O1 
A    6
 C5 
A    7
 O2 
A    8
 N1 
A    9
 C6 
A   10
 C7 
A   11
 C8 
A   12
 C9 
A   13
 C10
A   14
 C11
A   15
 C12
A   16
 C13
A   17
 N2 
A   18
 C14
A   19
BR1 
A   20
 H1 
A   21
 H2 
A   22
 H3 
A   23
 H4 
A   24
 H5 
A   25
 H6 
A   26
 H7 
A   27
 H8 
A   28
 H9 
A   29
 H10
A   30
 H11
A   31
 H12
A   32
 H13
A   33
 H14
A   34
 H15
M  END
>  <ref_pdb>  (144) 
x0451_0A

>  <ref_mols>  (144) 
x0451_0A,x0554_0A,x0556_0A,x0566_0A,x0310_0A,x0416_0A

>  <original SMILES>  (144) 
CC(C)(C)OC(=O)Nc1cc2ccccc2nc1Br

>  <rationale>  (144) 
info info set:ROCS-BB-1RB;Warhead nanÅ to Cys110:SG; hbond:S125; hydroph_interaction:Y89+Y90; 

>  <∆∆G>  (144) 
-7.878195

>  <comRMSD>  (144) 
0.492052

>  <ROCS_TanimotoCombo>  (144) 
0.506

>  <ROCS_ShapeTanimoto>  (144) 
0.344

>  <ROCS_ColorTanimoto>  (144) 
0.162

>  <distance>  (144) 
nan

$$$$
Z44308311
     RDKit          3D

 46 47  0  0  0  0  0  0  0  0999 V2000
   15.8400   17.3140   17.5190 C   0  0  0  0  0  0  0  0  0  0  0  0
   14.4770   17.8470   17.6270 C   0  0  0  0  0  0  0  0  0  0  0  0
   13.8120   18.0540   16.2790 C   0  0  0  0  0  0  0  0  0  0  0  0
   14.7940   19.1760   18.2910 C   0  0  0  0  0  0  0  0  0  0  0  0
   13.5770   16.9110   18.4750 C   0  0  0  0  0  0  0  0  0  0  0  0
   12.3800   16.1890   17.8620 C   0  0  0  0  0  0  0  0  0  0  0  0
   11.5140   15.2900   18.7300 C   0  0  0  0  0  0  0  0  0  0  0  0
   11.9360   15.2030   20.1880 C   0  0  0  0  0  0  0  0  0  0  0  0
   11.0280   14.3950   21.0990 C   0  0  0  0  0  0  0  0  0  0  0  0
   11.4920   13.9940   22.4790 C   0  0  0  0  0  0  0  0  0  0  0  0
   12.8110   14.1480   23.1290 C   0  0  0  0  0  0  0  0  0  0  0  0
   13.7390   14.0080   23.7590 N   0  0  0  0  0  0  0  0  0  0  0  0
   10.6040   13.3610   23.4150 C   0  0  0  0  0  0  0  0  0  0  0  0
   10.1640   14.0120   24.3530 O   0  0  0  0  0  0  0  0  0  0  0  0
   10.3620   12.0060   23.1390 N   0  0  0  0  0  0  0  0  0  0  0  0
    9.3720   11.3190   23.8110 C   0  0  0  0  0  0  0  0  0  0  0  0
    8.4030   11.9450   24.5690 C   0  0  0  0  0  0  0  0  0  0  0  0
    7.3410   11.1930   25.3080 C   0  0  0  0  0  0  0  0  0  0  0  0
    6.3560   12.0200   26.1020 C   0  0  0  0  0  0  0  0  0  0  0  0
    6.9010   12.5100   27.2440 F   0  0  0  0  0  0  0  0  0  0  0  0
    5.2730   11.2960   26.4940 F   0  0  0  0  0  0  0  0  0  0  0  0
    5.8750   13.1270   25.4610 F   0  0  0  0  0  0  0  0  0  0  0  0
    7.3290    9.8070   25.2260 C   0  0  0  0  0  0  0  0  0  0  0  0
    8.3010    9.1480   24.4610 C   0  0  0  0  0  0  0  0  0  0  0  0
    9.3520    9.9440   23.7330 C   0  0  0  0  0  0  0  0  0  0  0  0
   10.5250    9.1160   22.8110 Cl  0  0  0  0  0  0  0  0  0  0  0  0
   13.0460   15.8880   20.6490 C   0  0  0  0  0  0  0  0  0  0  0  0
   13.8060   16.6990   19.8090 C   0  0  0  0  0  0  0  0  0  0  0  0
   16.5700   18.0180   17.9160 H   0  0  0  0  0  0  0  0  0  0  0  0
   15.9960   17.1750   16.4750 H   0  0  0  0  0  0  0  0  0  0  0  0
   15.9070   16.3920   18.0570 H   0  0  0  0  0  0  0  0  0  0  0  0
   13.3930   19.0330   16.0580 H   0  0  0  0  0  0  0  0  0  0  0  0
   14.5500   17.8520   15.4960 H   0  0  0  0  0  0  0  0  0  0  0  0
   13.0140   17.3240   16.1310 H   0  0  0  0  0  0  0  0  0  0  0  0
   14.3610   20.0220   17.7660 H   0  0  0  0  0  0  0  0  0  0  0  0
   14.4560   19.1970   19.3320 H   0  0  0  0  0  0  0  0  0  0  0  0
   15.8740   19.3520   18.3180 H   0  0  0  0  0  0  0  0  0  0  0  0
   12.1250   16.3130   16.8080 H   0  0  0  0  0  0  0  0  0  0  0  0
   10.6470   14.7690   18.3230 H   0  0  0  0  0  0  0  0  0  0  0  0
   10.0300   14.1960   20.7260 H   0  0  0  0  0  0  0  0  0  0  0  0
   10.6080   11.6630   22.1980 H   0  0  0  0  0  0  0  0  0  0  0  0
    8.4180   13.0430   24.6320 H   0  0  0  0  0  0  0  0  0  0  0  0
    6.5710    9.2370   25.7550 H   0  0  0  0  0  0  0  0  0  0  0  0
    8.3050    8.0660   24.3920 H   0  0  0  0  0  0  0  0  0  0  0  0
   13.3400   15.8180   21.7000 H   0  0  0  0  0  0  0  0  0  0  0  0
   14.6180   17.1840   20.2680 H   0  0  0  0  0  0  0  0  0  0  0  0
  1  2  1  0
  2  3  1  0
  2  4  1  0
  2  5  1  0
  5  6  2  0
  6  7  1  0
  7  8  2  0
  8  9  1  0
  9 10  2  3
 10 11  1  0
 11 12  3  0
 10 13  1  0
 13 14  2  0
 13 15  1  0
 15 16  1  0
 16 17  2  0
 17 18  1  0
 18 19  1  0
 19 20  1  0
 19 21  1  0
 19 22  1  0
 18 23  2  0
 23 24  1  0
 24 25  2  0
 25 26  1  0
  8 27  1  0
 27 28  2  0
 28  5  1  0
 25 16  1  0
  1 29  1  0
  1 30  1  0
  1 31  1  0
  3 32  1  0
  3 33  1  0
  3 34  1  0
  4 35  1  0
  4 36  1  0
  4 37  1  0
  6 38  1  0
  7 39  1  0
  9 40  1  0
 15 41  1  0
 17 42  1  0
 23 43  1  0
 24 44  1  0
 27 45  1  0
 28 46  1  0
A    1
 C1 
A    2
 C2 
A    3
 C3 
A    4
 C4 
A    5
 C5 
A    6
 C6 
A    7
 C7 
A    8
 C8 
A    9
 C9 
A   10
 C10
A   11
 C11
A   12
 N1 
A   13
 C12
A   14
 O1 
A   15
 N2 
A   16
 C13
A   17
 C14
A   18
 C15
A   19
 C16
A   20
 F1 
A   21
 F2 
A   22
 F3 
A   23
 C17
A   24
 C18
A   25
 C19
A   26
CL1 
A   27
 C20
A   28
 C21
A   29
 H1 
A   30
 H2 
A   31
 H3 
A   32
 H4 
A   33
 H5 
A   34
 H6 
A   35
 H7 
A   36
 H8 
A   37
 H9 
A   38
 H10
A   39
 H11
A   40
 H12
A   41
 H13
A   42
 H14
A   43
 H15
A   44
 H16
A   45
 H17
A   46
 H18
M  END
>  <ref_pdb>  (145) 
x0451_0A

>  <ref_mols>  (145) 
x0451_0A,x0554_0A,x0556_0A,x0566_0A,x0310_0A,x0416_0A

>  <original SMILES>  (145) 
CC(C)(C)c1ccc(C=C(C#N)C(=O)Nc2cc(C(F)(F)F)ccc2Cl)cc1

>  <rationale>  (145) 
info info set:ROCS-cov2;Warhead 5.257886946293159Å to Cys110:SG; hbond:S87+S125; hydroph_interaction:Y89+Y90+D39+R20; 

>  <∆∆G>  (145) 
-7.877771

>  <comRMSD>  (145) 
0.702904

>  <ROCS_TanimotoCombo>  (145) 
0.518

>  <ROCS_ShapeTanimoto>  (145) 
0.355

>  <ROCS_ColorTanimoto>  (145) 
0.163

>  <distance>  (145) 
5.257887

$$$$
EN300_28295570
     RDKit          3D

 39 40  0  0  0  0  0  0  0  0999 V2000
    5.9620   12.3720   27.0530 C   0  0  0  0  0  0  0  0  0  0  0  0
    6.9800   11.8880   26.0670 C   0  0  0  0  0  0  0  0  0  0  0  0
    7.1690   10.6110   25.7020 N   0  0  0  0  0  0  0  0  0  0  0  0
    8.1860   10.7620   24.8240 N   0  0  0  0  0  0  0  0  0  0  0  0
    8.6660   12.0500   24.5850 C   0  0  0  0  0  0  0  0  0  0  0  0
    7.9120   12.8720   25.3900 C   0  0  0  0  0  0  0  0  0  0  0  0
    7.9060   14.7260   25.6920 Br  0  0  0  0  0  0  0  0  0  0  0  0
    9.7090   12.1870   23.6710 N   0  0  0  0  0  0  0  0  0  0  0  0
   10.2490   13.4560   23.4300 C   0  0  0  0  0  0  0  0  0  0  0  0
   10.5710   14.2460   24.3090 O   0  0  0  0  0  0  0  0  0  0  0  0
   10.3610   13.6900   22.2270 O   0  0  0  0  0  0  0  0  0  0  0  0
   11.3910   14.6230   21.8390 C   0  0  0  0  0  0  0  0  0  0  0  0
   12.6130   14.5600   22.7180 C   0  0  0  0  0  0  0  0  0  0  0  0
   10.7520   15.9690   22.1190 C   0  0  0  0  0  0  0  0  0  0  0  0
   11.7520   14.6000   20.3460 C   0  0  0  0  0  0  0  0  0  0  0  0
   10.5560   11.0280   23.4740 C   0  0  0  0  0  0  0  0  0  0  0  0
   10.0110    9.6890   23.9190 C   0  0  2  0  0  0  0  0  0  0  0  0
   10.3160    8.7870   22.7740 C   0  0  0  0  0  0  0  0  0  0  0  0
    8.7110    9.5740   24.1930 C   0  0  0  0  0  0  0  0  0  0  0  0
    5.1180   12.8070   26.5060 H   0  0  0  0  0  0  0  0  0  0  0  0
    5.6120   11.5640   27.7010 H   0  0  0  0  0  0  0  0  0  0  0  0
    6.4110   13.1500   27.6770 H   0  0  0  0  0  0  0  0  0  0  0  0
   13.3960   15.2350   22.3730 H   0  0  0  0  0  0  0  0  0  0  0  0
   13.0070   13.5450   22.7510 H   0  0  0  0  0  0  0  0  0  0  0  0
   12.3540   14.8470   23.7380 H   0  0  0  0  0  0  0  0  0  0  0  0
   11.3230   16.7670   21.6360 H   0  0  0  0  0  0  0  0  0  0  0  0
    9.7110   16.0080   21.7840 H   0  0  0  0  0  0  0  0  0  0  0  0
   10.7800   16.1730   23.1860 H   0  0  0  0  0  0  0  0  0  0  0  0
   12.3770   13.7370   20.1030 H   0  0  0  0  0  0  0  0  0  0  0  0
   10.8720   14.5250   19.7180 H   0  0  0  0  0  0  0  0  0  0  0  0
   12.2840   15.4940   20.0540 H   0  0  0  0  0  0  0  0  0  0  0  0
   11.4560   11.2010   24.0750 H   0  0  0  0  0  0  0  0  0  0  0  0
   10.8900   11.1070   22.4640 H   0  0  0  0  0  0  0  0  0  0  0  0
   10.4680    9.3700   24.8550 H   0  0  0  0  0  0  0  0  0  0  0  0
   10.8540    9.3490   22.0090 H   0  0  0  0  0  0  0  0  0  0  0  0
    9.3720    8.4770   22.3300 H   0  0  0  0  0  0  0  0  0  0  0  0
   10.8940    7.9060   23.0100 H   0  0  0  0  0  0  0  0  0  0  0  0
    8.5990    8.6570   24.7540 H   0  0  0  0  0  0  0  0  0  0  0  0
    8.1420    9.4590   23.2740 H   0  0  0  0  0  0  0  0  0  0  0  0
  1  2  1  0
  2  3  2  0
  3  4  1  0
  4  5  1  0
  5  6  2  0
  6  7  1  0
  5  8  1  0
  8  9  1  0
  9 10  2  0
  9 11  1  0
 11 12  1  0
 12 13  1  0
 12 14  1  0
 12 15  1  0
  8 16  1  0
 16 17  1  0
 17 18  1  0
 17 19  1  0
  6  2  1  0
 19  4  1  0
  1 20  1  0
  1 21  1  0
  1 22  1  0
 13 23  1  0
 13 24  1  0
 13 25  1  0
 14 26  1  0
 14 27  1  0
 14 28  1  0
 15 29  1  0
 15 30  1  0
 15 31  1  0
 16 32  1  0
 16 33  1  0
 17 34  1  1
 18 35  1  0
 18 36  1  0
 18 37  1  0
 19 38  1  0
 19 39  1  0
A    1
 C1 
A    2
 C2 
A    3
 N1 
A    4
 N2 
A    5
 C3 
A    6
 C4 
A    7
BR1 
A    8
 N3 
A    9
 C5 
A   10
 O1 
A   11
 O2 
A   12
 C6 
A   13
 C7 
A   14
 C8 
A   15
 C9 
A   16
 C10
A   17
 C11
A   18
 C12
A   19
 C13
A   20
 H1 
A   21
 H2 
A   22
 H3 
A   23
 H4 
A   24
 H5 
A   25
 H6 
A   26
 H7 
A   27
 H8 
A   28
 H9 
A   29
 H10
A   30
 H11
A   31
 H12
A   32
 H13
A   33
 H14
A   34
 H15
A   35
 H16
A   36
 H17
A   37
 H18
A   38
 H19
A   39
 H20
M  END
>  <ref_pdb>  (146) 
x0451_0A

>  <ref_mols>  (146) 
x0451_0A,x0554_0A,x0556_0A,x0566_0A,x0310_0A,x0416_0A

>  <original SMILES>  (146) 
Cc1nn2c(c1Br)N(C(=O)OC(C)(C)C)C[C@H](C)C2

>  <rationale>  (146) 
info info set:ROCS-BB-0RB;Warhead nanÅ to Cys110:SG; hydroph_interaction:Y89+V124; 

>  <∆∆G>  (146) 
-7.851997

>  <comRMSD>  (146) 
0.488277

>  <ROCS_TanimotoCombo>  (146) 
0.505

>  <ROCS_ShapeTanimoto>  (146) 
0.351

>  <ROCS_ColorTanimoto>  (146) 
0.154

>  <distance>  (146) 
nan

$$$$
Z99095183
     RDKit          3D

 33 34  0  0  0  0  0  0  0  0999 V2000
   12.2880   15.6060   22.1930 C   0  0  0  0  0  0  0  0  0  0  0  0
   11.1270   14.9250   21.4950 C   0  0  0  0  0  0  0  0  0  0  0  0
   11.4730   14.8430   19.9960 C   0  0  0  0  0  0  0  0  0  0  0  0
    9.8520   15.7660   21.6570 C   0  0  0  0  0  0  0  0  0  0  0  0
   10.9340   13.5680   22.0210 N   0  0  0  0  0  0  0  0  0  0  0  0
   10.8700   13.2080   23.3550 C   0  0  0  0  0  0  0  0  0  0  0  0
   10.7270   13.9940   24.2910 O   0  0  0  0  0  0  0  0  0  0  0  0
   11.0030   11.7110   23.5810 C   0  0  0  0  0  0  0  0  0  0  0  0
    9.7210   11.0820   24.0000 C   0  0  0  0  0  0  0  0  0  0  0  0
    9.4130    9.8530   23.5560 N   0  0  0  0  0  0  0  0  0  0  0  0
    8.1880    9.5450   24.1240 O   0  0  0  0  0  0  0  0  0  0  0  0
    7.7700   10.5820   24.8990 C   0  0  0  0  0  0  0  0  0  0  0  0
    6.5870   10.6440   25.6300 C   0  0  0  0  0  0  0  0  0  0  0  0
    6.3660   11.8150   26.3490 C   0  0  0  0  0  0  0  0  0  0  0  0
    7.2880   12.8620   26.3250 C   0  0  0  0  0  0  0  0  0  0  0  0
    8.4720   12.7690   25.5810 C   0  0  0  0  0  0  0  0  0  0  0  0
    8.7090   11.5940   24.8500 C   0  0  0  0  0  0  0  0  0  0  0  0
   13.0620   15.9090   21.4770 H   0  0  0  0  0  0  0  0  0  0  0  0
   11.9310   16.4970   22.7110 H   0  0  0  0  0  0  0  0  0  0  0  0
   12.7650   14.9520   22.9310 H   0  0  0  0  0  0  0  0  0  0  0  0
   12.5280   14.5820   19.8430 H   0  0  0  0  0  0  0  0  0  0  0  0
   11.3040   15.8050   19.5000 H   0  0  0  0  0  0  0  0  0  0  0  0
   10.8690   14.0860   19.4840 H   0  0  0  0  0  0  0  0  0  0  0  0
    9.6040   15.9030   22.7160 H   0  0  0  0  0  0  0  0  0  0  0  0
    9.9550   16.7640   21.2180 H   0  0  0  0  0  0  0  0  0  0  0  0
    8.9970   15.2810   21.1700 H   0  0  0  0  0  0  0  0  0  0  0  0
   11.0890   12.7980   21.3680 H   0  0  0  0  0  0  0  0  0  0  0  0
   11.3580   11.2510   22.6580 H   0  0  0  0  0  0  0  0  0  0  0  0
   11.7880   11.5410   24.3280 H   0  0  0  0  0  0  0  0  0  0  0  0
    5.8790    9.8240   25.6390 H   0  0  0  0  0  0  0  0  0  0  0  0
    5.4550   11.9140   26.9360 H   0  0  0  0  0  0  0  0  0  0  0  0
    7.0880   13.7650   26.8970 H   0  0  0  0  0  0  0  0  0  0  0  0
    9.1840   13.5900   25.5730 H   0  0  0  0  0  0  0  0  0  0  0  0
  1  2  1  0
  2  3  1  0
  2  4  1  0
  2  5  1  0
  5  6  1  0
  6  7  2  0
  6  8  1  0
  8  9  1  0
  9 10  2  0
 10 11  1  0
 11 12  1  0
 12 13  2  0
 13 14  1  0
 14 15  2  0
 15 16  1  0
 16 17  2  0
 17  9  1  0
 17 12  1  0
  1 18  1  0
  1 19  1  0
  1 20  1  0
  3 21  1  0
  3 22  1  0
  3 23  1  0
  4 24  1  0
  4 25  1  0
  4 26  1  0
  5 27  1  0
  8 28  1  0
  8 29  1  0
 13 30  1  0
 14 31  1  0
 15 32  1  0
 16 33  1  0
A    1
 C1 
A    2
 C2 
A    3
 C3 
A    4
 C4 
A    5
 N1 
A    6
 C5 
A    7
 O1 
A    8
 C6 
A    9
 C7 
A   10
 N2 
A   11
 O2 
A   12
 C8 
A   13
 C9 
A   14
 C10
A   15
 C11
A   16
 C12
A   17
 C13
A   18
 H1 
A   19
 H2 
A   20
 H3 
A   21
 H4 
A   22
 H5 
A   23
 H6 
A   24
 H7 
A   25
 H8 
A   26
 H9 
A   27
 H10
A   28
 H11
A   29
 H12
A   30
 H13
A   31
 H14
A   32
 H15
A   33
 H16
M  END
>  <ref_pdb>  (147) 
x0451_0A

>  <ref_mols>  (147) 
x0451_0A,x0554_0A,x0556_0A,x0566_0A,x0310_0A,x0416_0A

>  <original SMILES>  (147) 
CC(C)(C)NC(=O)Cc1noc2ccccc12

>  <rationale>  (147) 
info info set:ROCS-shape_Q1;Warhead nanÅ to Cys110:SG; hbond:S125; hydroph_interaction:Y89; 

>  <∆∆G>  (147) 
-7.843971

>  <comRMSD>  (147) 
0.338036

>  <ROCS_TanimotoCombo>  (147) 
0.479

>  <ROCS_ShapeTanimoto>  (147) 
0.325

>  <ROCS_ColorTanimoto>  (147) 
0.154

>  <distance>  (147) 
nan

$$$$
Z235426516
     RDKit          3D

 50 53  0  0  0  0  0  0  0  0999 V2000
    9.4920    8.1440   23.0910 C   0  0  0  0  0  0  0  0  0  0  0  0
    9.1730    9.3860   23.8380 C   0  0  0  0  0  0  0  0  0  0  0  0
   10.0830   10.4230   23.8070 C   0  0  0  0  0  0  0  0  0  0  0  0
    9.7850   11.5720   24.5060 C   0  0  0  0  0  0  0  0  0  0  0  0
   10.6540   12.6150   24.5120 C   0  0  0  0  0  0  0  0  0  0  0  0
   10.3660   13.7020   24.0330 O   0  0  0  0  0  0  0  0  0  0  0  0
   11.8920   12.3860   25.1080 N   0  0  0  0  0  0  0  0  0  0  0  0
   12.7370   11.1910   24.9090 C   0  0  0  0  0  0  0  0  0  0  0  0
   12.6850   13.5720   25.2070 C   0  0  0  0  0  0  0  0  0  0  0  0
   12.2750   14.3130   24.1580 C   0  0  0  0  0  0  0  0  0  0  0  0
   11.3970   15.5090   24.3790 C   0  0  0  0  0  0  0  0  0  0  0  0
   11.1320   16.1000   23.0860 N   0  0  0  0  0  0  0  0  0  0  0  0
   11.7810   15.2960   22.2020 N   0  0  0  0  0  0  0  0  0  0  0  0
   11.6970   15.5680   20.8240 C   0  0  0  0  0  0  0  0  0  0  0  0
   12.2530   14.6900   19.9260 C   0  0  0  0  0  0  0  0  0  0  0  0
   12.1550   14.9360   18.5880 C   0  0  0  0  0  0  0  0  0  0  0  0
   11.4600   16.1510   18.0580 C   0  0  0  0  0  0  0  0  0  0  0  0
   10.9280   16.9630   18.9980 C   0  0  0  0  0  0  0  0  0  0  0  0
   11.0200   16.7190   20.3660 C   0  0  0  0  0  0  0  0  0  0  0  0
   12.4550   14.2460   22.8030 C   0  0  0  0  0  0  0  0  0  0  0  0
    8.6070   11.6670   25.2050 C   0  0  0  0  0  0  0  0  0  0  0  0
    7.8740   12.6480   26.0630 C   0  0  0  0  0  0  0  0  0  0  0  0
    8.5050   14.0070   26.3300 C   0  0  0  0  0  0  0  0  0  0  0  0
    6.7190   12.1940   26.5080 N   0  0  0  0  0  0  0  0  0  0  0  0
    6.6780   10.9480   25.9700 N   0  0  0  0  0  0  0  0  0  0  0  0
    5.5250   10.1700   26.2880 C   0  0  0  0  0  0  0  0  0  0  0  0
    7.7670   10.5850   25.1810 C   0  0  0  0  0  0  0  0  0  0  0  0
    7.9940    9.4300   24.5200 N   0  0  0  0  0  0  0  0  0  0  0  0
    8.8780    7.3120   23.4470 H   0  0  0  0  0  0  0  0  0  0  0  0
   10.5450    7.8860   23.2120 H   0  0  0  0  0  0  0  0  0  0  0  0
    9.3300    8.2810   22.0320 H   0  0  0  0  0  0  0  0  0  0  0  0
   11.0160   10.3450   23.2520 H   0  0  0  0  0  0  0  0  0  0  0  0
   13.5290   11.1740   25.6630 H   0  0  0  0  0  0  0  0  0  0  0  0
   12.1670   10.2630   25.0070 H   0  0  0  0  0  0  0  0  0  0  0  0
   13.1930   11.2460   23.9230 H   0  0  0  0  0  0  0  0  0  0  0  0
   13.7430   13.3160   25.0810 H   0  0  0  0  0  0  0  0  0  0  0  0
   12.5860   13.9740   26.2230 H   0  0  0  0  0  0  0  0  0  0  0  0
   10.9940   15.9340   25.2870 H   0  0  0  0  0  0  0  0  0  0  0  0
   12.7490   13.8080   20.2750 H   0  0  0  0  0  0  0  0  0  0  0  0
   12.5620   14.2570   17.9100 H   0  0  0  0  0  0  0  0  0  0  0  0
   11.3800   16.3530   16.9940 H   0  0  0  0  0  0  0  0  0  0  0  0
   10.3960   17.8620   18.6630 H   0  0  0  0  0  0  0  0  0  0  0  0
   10.5620   17.4230   21.0440 H   0  0  0  0  0  0  0  0  0  0  0  0
   13.0060   13.5240   22.2220 H   0  0  0  0  0  0  0  0  0  0  0  0
    9.5310   13.8590   26.6770 H   0  0  0  0  0  0  0  0  0  0  0  0
    8.0310   14.6610   27.0550 H   0  0  0  0  0  0  0  0  0  0  0  0
    8.5440   14.5630   25.3850 H   0  0  0  0  0  0  0  0  0  0  0  0
    4.7000   10.8500   26.4830 H   0  0  0  0  0  0  0  0  0  0  0  0
    5.7480    9.5740   27.1780 H   0  0  0  0  0  0  0  0  0  0  0  0
    5.2730    9.4920   25.4890 H   0  0  0  0  0  0  0  0  0  0  0  0
  1  2  1  0
  2  3  2  0
  3  4  1  0
  4  5  1  0
  5  6  2  0
  5  7  1  0
  7  8  1  0
  7  9  1  0
  9 10  1  0
 10 11  1  0
 11 12  2  0
 12 13  1  0
 13 14  1  0
 14 15  2  0
 15 16  1  0
 16 17  2  0
 17 18  1  0
 18 19  2  0
 13 20  1  0
  4 21  2  0
 21 22  1  0
 22 23  1  0
 22 24  2  0
 24 25  1  0
 25 26  1  0
 25 27  1  0
 27 28  2  0
 28  2  1  0
 20 10  2  0
 27 21  1  0
 19 14  1  0
  1 29  1  0
  1 30  1  0
  1 31  1  0
  3 32  1  0
  8 33  1  0
  8 34  1  0
  8 35  1  0
  9 36  1  0
  9 37  1  0
 11 38  1  0
 15 39  1  0
 16 40  1  0
 17 41  1  0
 18 42  1  0
 19 43  1  0
 20 44  1  0
 23 45  1  0
 23 46  1  0
 23 47  1  0
 26 48  1  0
 26 49  1  0
 26 50  1  0
A    1
 C1 
A    2
 C2 
A    3
 C3 
A    4
 C4 
A    5
 C5 
A    6
 O1 
A    7
 N1 
A    8
 C6 
A    9
 C7 
A   10
 C8 
A   11
 C9 
A   12
 N2 
A   13
 N3 
A   14
 C10
A   15
 C11
A   16
 C12
A   17
 C13
A   18
 C14
A   19
 C15
A   20
 C16
A   21
 C17
A   22
 C18
A   23
 C19
A   24
 N4 
A   25
 N5 
A   26
 C20
A   27
 C21
A   28
 N6 
A   29
 H1 
A   30
 H2 
A   31
 H3 
A   32
 H4 
A   33
 H5 
A   34
 H6 
A   35
 H7 
A   36
 H8 
A   37
 H9 
A   38
 H10
A   39
 H11
A   40
 H12
A   41
 H13
A   42
 H14
A   43
 H15
A   44
 H16
A   45
 H17
A   46
 H18
A   47
 H19
A   48
 H20
A   49
 H21
A   50
 H22
M  END
>  <ref_pdb>  (148) 
x0451_0A

>  <ref_mols>  (148) 
x0451_0A,x0554_0A,x0556_0A,x0566_0A,x0310_0A,x0416_0A

>  <original SMILES>  (148) 
Cc1cc(C(=O)N(C)Cc2cnn(-c3ccccc3)c2)c2c(C)nn(C)c2n1

>  <rationale>  (148) 
info info set:ROCS-PPI;Warhead nanÅ to Cys110:SG; hbond:S87; hydroph_interaction:Y90+V124+D109+D39; pistack:Y89; 

>  <∆∆G>  (148) 
-7.837063

>  <comRMSD>  (148) 
1.069974

>  <ROCS_TanimotoCombo>  (148) 
0.52

>  <ROCS_ShapeTanimoto>  (148) 
0.329

>  <ROCS_ColorTanimoto>  (148) 
0.191

>  <distance>  (148) 
nan

$$$$
EN300_624593
     RDKit          3D

 38 39  0  0  0  0  0  0  0  0999 V2000
    6.4390    9.6460   26.0720 C   0  0  0  0  0  0  0  0  0  0  0  0
    6.9960   10.8910   25.7040 C   0  0  0  0  0  0  0  0  0  0  0  0
    6.2780   12.1000   26.2690 C   0  0  0  0  0  0  0  0  0  0  0  0
    6.7380   13.4560   25.9690 C   0  0  0  0  0  0  0  0  0  0  0  0
    7.9560   13.5210   25.0660 C   0  0  0  0  0  0  0  0  0  0  0  0
    8.6340   12.2500   24.5290 C   0  0  0  0  0  0  0  0  0  0  0  0
    8.2230   10.9860   24.8040 C   0  0  0  0  0  0  0  0  0  0  0  0
    9.1360   10.0130   24.1230 C   0  0  0  0  0  0  0  0  0  0  0  0
    8.9850    8.6490   24.2630 C   0  0  0  0  0  0  0  0  0  0  0  0
    8.7050    7.5400   23.2880 C   0  0  0  0  0  0  0  0  0  0  0  0
    8.4110    6.3640   22.5290 N   0  0  0  0  0  0  0  0  0  0  0  0
   10.0470   10.7890   23.4490 C   0  0  0  0  0  0  0  0  0  0  0  0
    9.7100   12.1370   23.7290 N   0  0  0  0  0  0  0  0  0  0  0  0
   10.3270   13.3860   23.3170 C   0  0  0  0  0  0  0  0  0  0  0  0
   10.7110   14.1460   24.1920 O   0  0  0  0  0  0  0  0  0  0  0  0
   10.3920   13.5770   21.9880 O   0  0  0  0  0  0  0  0  0  0  0  0
   11.3450   14.5680   21.5860 C   0  0  0  0  0  0  0  0  0  0  0  0
   11.7140   14.3830   20.1110 C   0  0  0  0  0  0  0  0  0  0  0  0
   12.5430   14.3620   22.4670 C   0  0  0  0  0  0  0  0  0  0  0  0
   10.7870   15.9670   21.7630 C   0  0  0  0  0  0  0  0  0  0  0  0
    5.4820    9.5020   25.5880 H   0  0  0  0  0  0  0  0  0  0  0  0
    7.1330    8.8760   25.7630 H   0  0  0  0  0  0  0  0  0  0  0  0
    6.2730    9.5960   27.1490 H   0  0  0  0  0  0  0  0  0  0  0  0
    5.4090   11.9930   26.9080 H   0  0  0  0  0  0  0  0  0  0  0  0
    6.1750   14.2840   26.4100 H   0  0  0  0  0  0  0  0  0  0  0  0
    8.3670   14.4960   24.7860 H   0  0  0  0  0  0  0  0  0  0  0  0
    7.5330    6.4390   22.0270 H   0  0  0  0  0  0  0  0  0  0  0  0
    8.3820    5.4990   23.0660 H   0  0  0  0  0  0  0  0  0  0  0  0
   10.9050   10.5380   22.8110 H   0  0  0  0  0  0  0  0  0  0  0  0
   12.0950   15.3300   19.7120 H   0  0  0  0  0  0  0  0  0  0  0  0
   10.8080   14.1740   19.5320 H   0  0  0  0  0  0  0  0  0  0  0  0
   12.4330   13.6280   19.8410 H   0  0  0  0  0  0  0  0  0  0  0  0
   13.3320   15.0430   22.1810 H   0  0  0  0  0  0  0  0  0  0  0  0
   12.8810   13.3240   22.4130 H   0  0  0  0  0  0  0  0  0  0  0  0
   12.3220   14.5400   23.5210 H   0  0  0  0  0  0  0  0  0  0  0  0
   10.1200   16.2490   20.9390 H   0  0  0  0  0  0  0  0  0  0  0  0
   10.2100   16.0650   22.6880 H   0  0  0  0  0  0  0  0  0  0  0  0
   11.5980   16.6990   21.8300 H   0  0  0  0  0  0  0  0  0  0  0  0
  1  2  1  0
  2  3  2  0
  3  4  1  0
  4  5  2  0
  5  6  1  0
  6  7  2  0
  7  8  1  0
  8  9  1  0
  9 10  3  0
 10 11  1  0
  8 12  2  0
 12 13  1  0
 13 14  1  0
 14 15  2  0
 14 16  1  0
 16 17  1  0
 17 18  1  0
 17 19  1  0
 17 20  1  0
  7  2  1  0
 13  6  1  0
  1 21  1  0
  1 22  1  0
  1 23  1  0
  3 24  1  0
  4 25  1  0
  5 26  1  0
 11 27  1  0
 11 28  1  0
 12 29  1  0
 18 30  1  0
 18 31  1  0
 18 32  1  0
 19 33  1  0
 19 34  1  0
 19 35  1  0
 20 36  1  0
 20 37  1  0
 20 38  1  0
A    1
 C1 
A    2
 C2 
A    3
 C3 
A    4
 C4 
A    5
 C5 
A    6
 C6 
A    7
 C7 
A    8
 C8 
A    9
 C9 
A   10
 C10
A   11
 N1 
A   12
 C11
A   13
 N2 
A   14
 C12
A   15
 O1 
A   16
 O2 
A   17
 C13
A   18
 C14
A   19
 C15
A   20
 C16
A   21
 H1 
A   22
 H2 
A   23
 H3 
A   24
 H4 
A   25
 H5 
A   26
 H6 
A   27
 H7 
A   28
 H8 
A   29
 H9 
A   30
 H10
A   31
 H11
A   32
 H12
A   33
 H13
A   34
 H14
A   35
 H15
A   36
 H16
A   37
 H17
A   38
 H18
M  END
>  <ref_pdb>  (149) 
x0451_0A

>  <ref_mols>  (149) 
x0451_0A,x0554_0A,x0556_0A,x0566_0A,x0310_0A,x0416_0A

>  <original SMILES>  (149) 
Cc1cccc2c1c(C#CN)cn2C(=O)OC(C)(C)C

>  <rationale>  (149) 
info info set:ROCS-BB-0RB;Warhead nanÅ to Cys110:SG; hbond:T126; hydroph_interaction:Y89+D109; 

>  <∆∆G>  (149) 
-7.826616

>  <comRMSD>  (149) 
0.680347

>  <ROCS_TanimotoCombo>  (149) 
0.484

>  <ROCS_ShapeTanimoto>  (149) 
0.351

>  <ROCS_ColorTanimoto>  (149) 
0.133

>  <distance>  (149) 
nan

$$$$
Z1347206054
     RDKit          3D

 36 36  0  0  0  0  0  0  0  0999 V2000
   12.0120   14.5660   21.2980 C   0  0  0  0  0  0  0  0  0  0  0  0
   11.0040   13.7360   21.9320 N   0  0  0  0  0  0  0  0  0  0  0  0
   11.0750   13.6220   23.6180 S   0  0  0  0  0  6  0  0  0  0  0  0
   12.3150   12.9600   23.9700 O   0  0  0  0  0  0  0  0  0  0  0  0
   10.7240   14.9060   24.1700 O   0  0  0  0  0  0  0  0  0  0  0  0
    9.7970   12.5050   24.0690 C   0  0  0  0  0  0  0  0  0  0  0  0
    9.8390   11.1310   23.4750 C   0  0  0  0  0  0  0  0  0  0  0  0
    8.7320   10.2280   23.9260 C   0  0  0  0  0  0  0  0  0  0  0  0
    8.8680    8.9280   23.2880 C   0  0  0  0  0  0  0  0  0  0  0  0
   10.1450    8.9110   22.5110 C   0  0  0  0  0  0  0  0  0  0  0  0
    8.8960    7.9720   24.3050 C   0  0  0  0  0  0  0  0  0  0  0  0
    7.7690   10.6540   24.8400 C   0  0  0  0  0  0  0  0  0  0  0  0
    6.7490    9.9180   25.3500 C   0  0  0  0  0  0  0  0  0  0  0  0
    7.8050   11.9430   25.3170 C   0  0  0  0  0  0  0  0  0  0  0  0
    8.7800   12.8510   24.9440 C   0  0  0  0  0  0  0  0  0  0  0  0
    8.6810   14.0850   25.4850 O   0  0  0  0  0  0  0  0  0  0  0  0
    7.2840   14.3890   25.6010 C   0  0  0  0  0  0  0  0  0  0  0  0
   12.8570   14.6970   21.9800 H   0  0  0  0  0  0  0  0  0  0  0  0
   12.3920   14.1120   20.3740 H   0  0  0  0  0  0  0  0  0  0  0  0
   11.6230   15.5630   21.0690 H   0  0  0  0  0  0  0  0  0  0  0  0
   11.0420   12.8070   21.4990 H   0  0  0  0  0  0  0  0  0  0  0  0
   10.6190   10.8280   22.7750 H   0  0  0  0  0  0  0  0  0  0  0  0
    8.0310    8.6450   22.6890 H   0  0  0  0  0  0  0  0  0  0  0  0
   10.7460    8.0570   22.8260 H   0  0  0  0  0  0  0  0  0  0  0  0
    9.9520    8.8550   21.4510 H   0  0  0  0  0  0  0  0  0  0  0  0
   10.7520    9.8020   22.6740 H   0  0  0  0  0  0  0  0  0  0  0  0
    9.8660    8.1810   24.7030 H   0  0  0  0  0  0  0  0  0  0  0  0
    8.1790    8.1680   25.0900 H   0  0  0  0  0  0  0  0  0  0  0  0
    8.8040    6.9490   23.9320 H   0  0  0  0  0  0  0  0  0  0  0  0
    6.2310    9.4160   24.5860 H   0  0  0  0  0  0  0  0  0  0  0  0
    7.1260    9.2140   26.0860 H   0  0  0  0  0  0  0  0  0  0  0  0
    6.0070   10.5500   25.8490 H   0  0  0  0  0  0  0  0  0  0  0  0
    7.0400   12.2660   26.0190 H   0  0  0  0  0  0  0  0  0  0  0  0
    7.1130   15.4710   25.5390 H   0  0  0  0  0  0  0  0  0  0  0  0
    6.6840   13.8650   24.8450 H   0  0  0  0  0  0  0  0  0  0  0  0
    6.9540   14.0530   26.5880 H   0  0  0  0  0  0  0  0  0  0  0  0
  1  2  1  0
  2  3  1  0
  3  4  2  0
  3  5  2  0
  3  6  1  0
  6  7  2  0
  7  8  1  0
  8  9  1  0
  9 10  1  0
  9 11  1  0
  8 12  2  0
 12 13  1  0
 12 14  1  0
 14 15  2  0
 15 16  1  0
 16 17  1  0
 15  6  1  0
  1 18  1  0
  1 19  1  0
  1 20  1  0
  2 21  1  0
  7 22  1  0
  9 23  1  0
 10 24  1  0
 10 25  1  0
 10 26  1  0
 11 27  1  0
 11 28  1  0
 11 29  1  0
 13 30  1  0
 13 31  1  0
 13 32  1  0
 14 33  1  0
 17 34  1  0
 17 35  1  0
 17 36  1  0
A    1
 C1 
A    2
 N1 
A    3
 S1 
A    4
 O1 
A    5
 O2 
A    6
 C2 
A    7
 C3 
A    8
 C4 
A    9
 C5 
A   10
 C6 
A   11
 C7 
A   12
 C8 
A   13
 C9 
A   14
 C10
A   15
 C11
A   16
 O3 
A   17
 C12
A   18
 H1 
A   19
 H2 
A   20
 H3 
A   21
 H4 
A   22
 H5 
A   23
 H6 
A   24
 H7 
A   25
 H8 
A   26
 H9 
A   27
 H10
A   28
 H11
A   29
 H12
A   30
 H13
A   31
 H14
A   32
 H15
A   33
 H16
A   34
 H17
A   35
 H18
A   36
 H19
M  END
>  <ref_pdb>  (150) 
x0451_0A

>  <ref_mols>  (150) 
x0451_0A,x0554_0A,x0556_0A,x0566_0A,x0310_0A,x0416_0A

>  <original SMILES>  (150) 
CNS(=O)(=O)c1cc(C(C)C)c(C)cc1OC

>  <rationale>  (150) 
info info set:ROCS-shape_Q1;Warhead nanÅ to Cys110:SG; hbond:S87+S125; hydroph_interaction:V124+D109; 

>  <∆∆G>  (150) 
-7.813839

>  <comRMSD>  (150) 
0.899566

>  <ROCS_TanimotoCombo>  (150) 
0.422

>  <ROCS_ShapeTanimoto>  (150) 
0.292

>  <ROCS_ColorTanimoto>  (150) 
0.13

>  <distance>  (150) 
nan

$$$$
EN300_6504988
     RDKit          3D

 37 38  0  0  0  0  0  0  0  0999 V2000
   11.6400   15.6960   22.1920 C   0  0  0  0  0  0  0  0  0  0  0  0
   11.2260   14.3980   21.6430 C   0  0  0  0  0  0  0  0  0  0  0  0
   12.4470   14.2620   22.5520 C   0  0  0  0  0  0  0  0  0  0  0  0
   11.4130   14.4280   20.1150 C   0  0  0  0  0  0  0  0  0  0  0  0
   10.2510   13.7640   22.0530 O   0  0  0  0  0  0  0  0  0  0  0  0
   10.1670   13.5030   23.3950 C   0  0  0  0  0  0  0  0  0  0  0  0
   10.4250   14.2950   24.2890 O   0  0  0  0  0  0  0  0  0  0  0  0
    9.7280   12.1410   23.6380 N   0  0  0  0  0  0  0  0  0  0  0  0
   10.6200   11.1200   23.4420 C   0  0  0  0  0  0  0  0  0  0  0  0
   10.0900    9.8280   23.2820 C   0  0  0  0  0  0  0  0  0  0  0  0
    8.7340    9.4530   23.8910 C   0  0  1  0  0  0  0  0  0  0  0  0
    8.6180    8.3170   24.5190 N   0  0  0  0  0  0  0  0  0  0  0  0
    8.1940   10.4940   24.6600 C   0  0  0  0  0  0  0  0  0  0  0  0
    7.2010   10.2770   25.5330 C   0  0  0  0  0  0  0  0  0  0  0  0
    6.5540   11.3230   26.4080 C   0  0  0  0  0  0  0  0  0  0  0  0
    7.1750   12.6870   26.1780 C   0  0  0  0  0  0  0  0  0  0  0  0
    8.1730   12.8700   25.2890 N   0  0  0  0  0  0  0  0  0  0  0  0
    8.6740   11.8360   24.5500 C   0  0  0  0  0  0  0  0  0  0  0  0
   11.3730   15.7730   23.2480 H   0  0  0  0  0  0  0  0  0  0  0  0
   11.1290   16.5050   21.6640 H   0  0  0  0  0  0  0  0  0  0  0  0
   12.7110   15.8410   22.0480 H   0  0  0  0  0  0  0  0  0  0  0  0
   12.9020   13.2860   22.6290 H   0  0  0  0  0  0  0  0  0  0  0  0
   13.2270   14.9550   22.2330 H   0  0  0  0  0  0  0  0  0  0  0  0
   12.2000   14.5280   23.5800 H   0  0  0  0  0  0  0  0  0  0  0  0
   12.3130   13.8780   19.8150 H   0  0  0  0  0  0  0  0  0  0  0  0
   10.5920   13.9240   19.6030 H   0  0  0  0  0  0  0  0  0  0  0  0
   11.4880   15.4490   19.7280 H   0  0  0  0  0  0  0  0  0  0  0  0
   11.2780   11.3420   22.6060 H   0  0  0  0  0  0  0  0  0  0  0  0
   11.2600   11.0920   24.3360 H   0  0  0  0  0  0  0  0  0  0  0  0
   10.0700    9.5750   22.2180 H   0  0  0  0  0  0  0  0  0  0  0  0
   10.8320    9.1260   23.6910 H   0  0  0  0  0  0  0  0  0  0  0  0
    8.0710    9.3270   23.0550 H   0  0  0  0  0  0  0  0  0  0  0  0
    8.8630    7.5550   23.8930 H   0  0  0  0  0  0  0  0  0  0  0  0
    9.2970    8.2700   25.2750 H   0  0  0  0  0  0  0  0  0  0  0  0
    6.8320    9.2540   25.6200 H   0  0  0  0  0  0  0  0  0  0  0  0
    5.7550   11.1280   27.1080 H   0  0  0  0  0  0  0  0  0  0  0  0
    6.8460   13.5710   26.7140 H   0  0  0  0  0  0  0  0  0  0  0  0
  1  2  1  0
  2  3  1  0
  2  4  1  0
  2  5  1  0
  5  6  1  0
  6  7  2  0
  6  8  1  0
  8  9  1  0
  9 10  1  0
 10 11  1  0
 11 12  1  0
 11 13  1  0
 13 14  2  0
 14 15  1  0
 15 16  2  0
 16 17  1  0
 17 18  2  0
 18  8  1  0
 18 13  1  0
  1 19  1  0
  1 20  1  0
  1 21  1  0
  3 22  1  0
  3 23  1  0
  3 24  1  0
  4 25  1  0
  4 26  1  0
  4 27  1  0
  9 28  1  0
  9 29  1  0
 10 30  1  0
 10 31  1  0
 11 32  1  6
 12 33  1  0
 12 34  1  0
 14 35  1  0
 15 36  1  0
 16 37  1  0
A    1
 C1 
A    2
 C2 
A    3
 C3 
A    4
 C4 
A    5
 O1 
A    6
 C5 
A    7
 O2 
A    8
 N1 
A    9
 C6 
A   10
 C7 
A   11
 C8 
A   12
 N2 
A   13
 C9 
A   14
 C10
A   15
 C11
A   16
 C12
A   17
 N3 
A   18
 C13
A   19
 H1 
A   20
 H2 
A   21
 H3 
A   22
 H4 
A   23
 H5 
A   24
 H6 
A   25
 H7 
A   26
 H8 
A   27
 H9 
A   28
 H10
A   29
 H11
A   30
 H12
A   31
 H13
A   32
 H14
A   33
 H15
A   34
 H16
A   35
 H17
A   36
 H18
A   37
 H19
M  END
>  <ref_pdb>  (151) 
x0451_0A

>  <ref_mols>  (151) 
x0451_0A,x0554_0A,x0556_0A,x0566_0A,x0310_0A,x0416_0A

>  <original SMILES>  (151) 
CC(C)(C)OC(=O)N1CC[C@@H](N)c2cccnc21

>  <rationale>  (151) 
info info set:ROCS-BB-0RB;Warhead nanÅ to Cys110:SG; hydroph_interaction:Y89; 

>  <∆∆G>  (151) 
-7.800607

>  <comRMSD>  (151) 
0.600992

>  <ROCS_TanimotoCombo>  (151) 
0.505

>  <ROCS_ShapeTanimoto>  (151) 
0.34

>  <ROCS_ColorTanimoto>  (151) 
0.165

>  <distance>  (151) 
nan

$$$$
EN300_1129126
     RDKit          3D

 41 43  0  0  0  0  0  0  0  0999 V2000
   11.6920   14.5260   20.2530 C   0  0  0  0  0  0  0  0  0  0  0  0
   11.3120   14.6330   21.7300 C   0  0  0  0  0  0  0  0  0  0  0  0
   10.9750   15.9330   22.0470 C   0  0  0  0  0  0  0  0  0  0  0  0
   12.4990   14.2510   22.5940 C   0  0  0  0  0  0  0  0  0  0  0  0
   10.2950   13.7070   22.1800 O   0  0  0  0  0  0  0  0  0  0  0  0
   10.1450   13.4790   23.5200 C   0  0  0  0  0  0  0  0  0  0  0  0
   10.5280   14.2830   24.3580 O   0  0  0  0  0  0  0  0  0  0  0  0
    9.5230   12.2580   23.7830 N   0  0  0  0  0  0  0  0  0  0  0  0
   10.2880   11.0650   23.5510 C   0  0  0  0  0  0  0  0  0  0  0  0
    9.4220    9.8420   23.6620 C   0  0  0  0  0  0  0  0  0  0  0  0
   10.5000    8.9610   23.6950 C   0  0  0  0  0  0  0  0  0  0  0  0
    9.6520    8.4330   22.8520 C   0  0  0  0  0  0  0  0  0  0  0  0
    8.4660    9.7480   24.7040 O   0  0  0  0  0  0  0  0  0  0  0  0
    7.9910   10.8050   25.1010 C   0  0  0  0  0  0  0  0  0  0  0  0
    6.9410   10.6510   25.9980 C   0  0  0  0  0  0  0  0  0  0  0  0
    6.2630   11.7460   26.5870 C   0  0  0  0  0  0  0  0  0  0  0  0
    6.7410   13.0010   26.1900 C   0  0  0  0  0  0  0  0  0  0  0  0
    6.0810   14.1850   26.7770 C   0  0  0  0  0  0  0  0  0  0  0  0
    6.5880   14.9370   27.5920 O   0  0  0  0  0  0  0  0  0  0  0  0
    4.8340   14.3760   26.3220 O   0  0  0  0  0  0  0  0  0  0  0  0
    7.7930   13.1660   25.2820 C   0  0  0  0  0  0  0  0  0  0  0  0
    8.4450   12.0850   24.7120 C   0  0  0  0  0  0  0  0  0  0  0  0
   10.7940   14.3590   19.6480 H   0  0  0  0  0  0  0  0  0  0  0  0
   12.4120   13.7250   20.0860 H   0  0  0  0  0  0  0  0  0  0  0  0
   12.1600   15.4470   19.8910 H   0  0  0  0  0  0  0  0  0  0  0  0
   10.8610   16.1990   23.0900 H   0  0  0  0  0  0  0  0  0  0  0  0
   10.0330   16.2290   21.5760 H   0  0  0  0  0  0  0  0  0  0  0  0
   11.7610   16.5920   21.6650 H   0  0  0  0  0  0  0  0  0  0  0  0
   12.2820   14.3400   23.6590 H   0  0  0  0  0  0  0  0  0  0  0  0
   12.7980   13.2200   22.3940 H   0  0  0  0  0  0  0  0  0  0  0  0
   13.3330   14.9110   22.3550 H   0  0  0  0  0  0  0  0  0  0  0  0
   10.7350   11.1340   22.5590 H   0  0  0  0  0  0  0  0  0  0  0  0
   11.1050   10.9990   24.2730 H   0  0  0  0  0  0  0  0  0  0  0  0
   11.3720    9.3660   23.1890 H   0  0  0  0  0  0  0  0  0  0  0  0
   10.7190    8.4850   24.6230 H   0  0  0  0  0  0  0  0  0  0  0  0
    9.2100    7.5030   23.2230 H   0  0  0  0  0  0  0  0  0  0  0  0
    9.7980    8.5230   21.7960 H   0  0  0  0  0  0  0  0  0  0  0  0
    6.6170    9.6510   26.2700 H   0  0  0  0  0  0  0  0  0  0  0  0
    5.4440   11.6120   27.2890 H   0  0  0  0  0  0  0  0  0  0  0  0
    4.8220   13.9140   25.4570 H   0  0  0  0  0  0  0  0  0  0  0  0
    8.0800   14.1830   25.0420 H   0  0  0  0  0  0  0  0  0  0  0  0
  1  2  1  0
  2  3  1  0
  2  4  1  0
  2  5  1  0
  5  6  1  0
  6  7  2  0
  6  8  1  0
  8  9  1  0
  9 10  1  0
 10 11  1  0
 11 12  1  0
 10 13  1  0
 13 14  1  0
 14 15  2  0
 15 16  1  0
 16 17  2  0
 17 18  1  0
 18 19  2  0
 18 20  1  0
 17 21  1  0
 21 22  2  0
 22  8  1  0
 12 10  1  0
 22 14  1  0
  1 23  1  0
  1 24  1  0
  1 25  1  0
  3 26  1  0
  3 27  1  0
  3 28  1  0
  4 29  1  0
  4 30  1  0
  4 31  1  0
  9 32  1  0
  9 33  1  0
 11 34  1  0
 11 35  1  0
 12 36  1  0
 12 37  1  0
 15 38  1  0
 16 39  1  0
 20 40  1  0
 21 41  1  0
A    1
 C1 
A    2
 C2 
A    3
 C3 
A    4
 C4 
A    5
 O1 
A    6
 C5 
A    7
 O2 
A    8
 N1 
A    9
 C6 
A   10
 C7 
A   11
 C8 
A   12
 C9 
A   13
 O3 
A   14
 C10
A   15
 C11
A   16
 C12
A   17
 C13
A   18
 C14
A   19
 O4 
A   20
 O5 
A   21
 C15
A   22
 C16
A   23
 H1 
A   24
 H2 
A   25
 H3 
A   26
 H4 
A   27
 H5 
A   28
 H6 
A   29
 H7 
A   30
 H8 
A   31
 H9 
A   32
 H10
A   33
 H11
A   34
 H12
A   35
 H13
A   36
 H14
A   37
 H15
A   38
 H16
A   39
 H17
A   40
 H18
A   41
 H19
M  END
>  <ref_pdb>  (152) 
x0451_0A

>  <ref_mols>  (152) 
x0451_0A,x0554_0A,x0556_0A,x0566_0A,x0310_0A,x0416_0A

>  <original SMILES>  (152) 
CC(C)(C)OC(=O)N1CC2(CC2)Oc2ccc(C(=O)O)cc21

>  <rationale>  (152) 
info info set:ROCS-BB-1RB;Warhead nanÅ to Cys110:SG; hydroph_interaction:Y89+V124+D109; 

>  <∆∆G>  (152) 
-7.793866

>  <comRMSD>  (152) 
0.46451

>  <ROCS_TanimotoCombo>  (152) 
0.553

>  <ROCS_ShapeTanimoto>  (152) 
0.374

>  <ROCS_ColorTanimoto>  (152) 
0.179

>  <distance>  (152) 
nan

$$$$
Z32328539
     RDKit          3D

 47 50  0  0  0  0  0  0  0  0999 V2000
   11.2770   15.8120   20.7200 C   0  0  0  0  0  0  0  0  0  0  0  0
   11.4270   15.0530   21.9730 C   0  0  0  0  0  0  0  0  0  0  0  0
   11.3820   15.7860   22.9580 O   0  0  0  0  0  0  0  0  0  0  0  0
   11.5910   13.6910   21.9810 N   0  0  0  0  0  0  0  0  0  0  0  0
   11.6140   12.9530   23.1610 C   0  0  1  0  0  0  0  0  0  0  0  0
   12.4740   13.6760   24.1720 C   0  0  0  0  0  0  0  0  0  0  0  0
   13.4180   12.7040   24.8380 C   0  0  0  0  0  0  0  0  0  0  0  0
   14.1800   11.7680   24.3670 C   0  0  0  0  0  0  0  0  0  0  0  0
   14.8570   11.1850   25.4180 N   0  0  0  0  0  0  0  0  0  0  0  0
   14.4890   11.8250   26.5770 C   0  0  0  0  0  0  0  0  0  0  0  0
   14.9760   11.5440   27.8320 C   0  0  0  0  0  0  0  0  0  0  0  0
   14.4870   12.3330   29.0040 C   0  0  0  0  0  0  0  0  0  0  0  0
   13.5480   13.3380   28.8290 C   0  0  0  0  0  0  0  0  0  0  0  0
   13.0040   13.6330   27.4230 C   0  0  0  0  0  0  0  0  0  0  0  0
   13.5390   12.8180   26.2500 C   0  0  0  0  0  0  0  0  0  0  0  0
   10.2420   13.1120   23.7760 C   0  0  0  0  0  0  0  0  0  0  0  0
    9.9140   14.2240   24.1710 O   0  0  0  0  0  0  0  0  0  0  0  0
    9.4690   11.9850   23.8730 N   0  0  0  0  0  0  0  0  0  0  0  0
    9.8930   10.5840   23.5670 C   0  0  0  0  0  0  0  0  0  0  0  0
    8.8980    9.7820   24.1260 C   0  0  0  0  0  0  0  0  0  0  0  0
    8.0950   10.5720   24.9400 C   0  0  0  0  0  0  0  0  0  0  0  0
    7.0870   10.1670   25.8020 C   0  0  0  0  0  0  0  0  0  0  0  0
    6.3570   11.1820   26.5800 C   0  0  0  0  0  0  0  0  0  0  0  0
    6.7480   12.5130   26.3930 C   0  0  0  0  0  0  0  0  0  0  0  0
    7.7790   12.8880   25.5110 C   0  0  0  0  0  0  0  0  0  0  0  0
    8.4310   11.8940   24.7980 C   0  0  0  0  0  0  0  0  0  0  0  0
   12.2350   15.8670   20.1990 H   0  0  0  0  0  0  0  0  0  0  0  0
   10.5580   15.3100   20.0690 H   0  0  0  0  0  0  0  0  0  0  0  0
   10.9120   16.8180   20.9420 H   0  0  0  0  0  0  0  0  0  0  0  0
   11.5380   13.1900   21.0970 H   0  0  0  0  0  0  0  0  0  0  0  0
   11.7300   11.9220   22.8520 H   0  0  0  0  0  0  0  0  0  0  0  0
   11.8220   14.1310   24.9260 H   0  0  0  0  0  0  0  0  0  0  0  0
   13.0340   14.4500   23.6530 H   0  0  0  0  0  0  0  0  0  0  0  0
   14.2450   11.5380   23.3330 H   0  0  0  0  0  0  0  0  0  0  0  0
   15.5250   10.4260   25.3460 H   0  0  0  0  0  0  0  0  0  0  0  0
   15.7130   10.7420   27.8850 H   0  0  0  0  0  0  0  0  0  0  0  0
   14.8740   12.1150   30.0070 H   0  0  0  0  0  0  0  0  0  0  0  0
   13.1840   13.9200   29.6840 H   0  0  0  0  0  0  0  0  0  0  0  0
   12.2660   14.4130   27.2770 H   0  0  0  0  0  0  0  0  0  0  0  0
   10.0630   10.3080   22.5370 H   0  0  0  0  0  0  0  0  0  0  0  0
   10.8360   10.4200   24.1000 H   0  0  0  0  0  0  0  0  0  0  0  0
    9.2560    8.8690   24.5940 H   0  0  0  0  0  0  0  0  0  0  0  0
    8.2680    9.4470   23.3050 H   0  0  0  0  0  0  0  0  0  0  0  0
    6.8310    9.1310   25.9160 H   0  0  0  0  0  0  0  0  0  0  0  0
    5.5630   10.8910   27.2600 H   0  0  0  0  0  0  0  0  0  0  0  0
    6.2840   13.3540   26.9140 H   0  0  0  0  0  0  0  0  0  0  0  0
    8.0360   13.9370   25.4090 H   0  0  0  0  0  0  0  0  0  0  0  0
  1  2  1  0
  2  3  2  0
  2  4  1  0
  4  5  1  0
  5  6  1  0
  6  7  1  0
  7  8  2  0
  8  9  1  0
  9 10  1  0
 10 11  2  0
 11 12  1  0
 12 13  2  0
 13 14  1  0
 14 15  2  0
  5 16  1  0
 16 17  2  0
 16 18  1  0
 18 19  1  0
 19 20  1  0
 20 21  1  0
 21 22  2  0
 22 23  1  0
 23 24  2  0
 24 25  1  0
 25 26  2  0
 15  7  1  0
 26 18  1  0
 15 10  1  0
 26 21  1  0
  1 27  1  0
  1 28  1  0
  1 29  1  0
  4 30  1  0
  5 31  1  6
  6 32  1  0
  6 33  1  0
  8 34  1  0
  9 35  1  0
 11 36  1  0
 12 37  1  0
 13 38  1  0
 14 39  1  0
 19 40  1  0
 19 41  1  0
 20 42  1  0
 20 43  1  0
 22 44  1  0
 23 45  1  0
 24 46  1  0
 25 47  1  0
A    1
 C1 
A    2
 C2 
A    3
 O1 
A    4
 N1 
A    5
 C3 
A    6
 C4 
A    7
 C5 
A    8
 C6 
A    9
 N2 
A   10
 C7 
A   11
 C8 
A   12
 C9 
A   13
 C10
A   14
 C11
A   15
 C12
A   16
 C13
A   17
 O2 
A   18
 N3 
A   19
 C14
A   20
 C15
A   21
 C16
A   22
 C17
A   23
 C18
A   24
 C19
A   25
 C20
A   26
 C21
A   27
 H1 
A   28
 H2 
A   29
 H3 
A   30
 H4 
A   31
 H5 
A   32
 H6 
A   33
 H7 
A   34
 H8 
A   35
 H9 
A   36
 H10
A   37
 H11
A   38
 H12
A   39
 H13
A   40
 H14
A   41
 H15
A   42
 H16
A   43
 H17
A   44
 H18
A   45
 H19
A   46
 H20
A   47
 H21
M  END
>  <ref_pdb>  (153) 
x0451_0A

>  <ref_mols>  (153) 
x0451_0A,x0554_0A,x0556_0A,x0566_0A,x0310_0A,x0416_0A

>  <original SMILES>  (153) 
CC(=O)N[C@@H](Cc1c[nH]c2ccccc12)C(=O)N1CCc2ccccc21

>  <rationale>  (153) 
info info set:ROCS-PPI;Warhead nanÅ to Cys110:SG; hbond:S87+S125+G108; hydroph_interaction:Y89+Y90+P107; 

>  <∆∆G>  (153) 
-7.791444

>  <comRMSD>  (153) 
0.819657

>  <ROCS_TanimotoCombo>  (153) 
0.526

>  <ROCS_ShapeTanimoto>  (153) 
0.354

>  <ROCS_ColorTanimoto>  (153) 
0.172

>  <distance>  (153) 
nan

$$$$
Z1457196988
     RDKit          3D

 37 38  0  0  0  0  0  0  0  0999 V2000
    9.8620    8.6250   23.1070 C   0  0  0  0  0  0  0  0  0  0  0  0
    9.3800    9.9700   23.6750 C   0  0  0  0  0  0  0  0  0  0  0  0
    8.0410    9.9250   24.4140 C   0  0  0  0  0  0  0  0  0  0  0  0
    7.5810   11.1720   24.9250 C   0  0  0  0  0  0  0  0  0  0  0  0
    8.3720   12.2830   24.7180 C   0  0  0  0  0  0  0  0  0  0  0  0
    7.8980   13.4370   25.2130 F   0  0  0  0  0  0  0  0  0  0  0  0
    9.5850   12.3030   24.0590 C   0  0  0  0  0  0  0  0  0  0  0  0
   10.3710   13.5710   23.8980 C   0  0  0  0  0  0  0  0  0  0  0  0
   10.9240   14.0340   24.8930 O   0  0  0  0  0  0  0  0  0  0  0  0
   10.4330   14.1260   22.6450 N   0  0  0  0  0  0  0  0  0  0  0  0
   11.5750   14.7980   22.0560 C   0  0  0  0  0  0  0  0  0  0  0  0
   11.2220   16.0480   21.2010 C   0  0  1  0  0  0  0  0  0  0  0  0
   11.8480   15.7110   19.8350 C   0  0  0  0  0  0  0  0  0  0  0  0
    9.8040   16.4540   20.9720 N   0  0  0  0  0  0  0  0  0  0  0  0
    8.9420   15.8640   22.0010 C   0  0  1  0  0  0  0  0  0  0  0  0
    7.4730   16.1940   21.7820 C   0  0  0  0  0  0  0  0  0  0  0  0
    9.1930   14.3820   21.9780 C   0  0  0  0  0  0  0  0  0  0  0  0
   10.1030   11.1370   23.5240 C   0  0  0  0  0  0  0  0  0  0  0  0
   10.8310    8.3480   23.5290 H   0  0  0  0  0  0  0  0  0  0  0  0
    9.1390    7.8240   23.3120 H   0  0  0  0  0  0  0  0  0  0  0  0
    9.9740    8.7100   22.0260 H   0  0  0  0  0  0  0  0  0  0  0  0
    7.4970    9.0260   24.5320 H   0  0  0  0  0  0  0  0  0  0  0  0
    6.6580   11.3690   25.4750 H   0  0  0  0  0  0  0  0  0  0  0  0
   12.0270   14.0440   21.3950 H   0  0  0  0  0  0  0  0  0  0  0  0
   12.3380   15.0190   22.7890 H   0  0  0  0  0  0  0  0  0  0  0  0
   11.7640   16.9030   21.6130 H   0  0  0  0  0  0  0  0  0  0  0  0
   11.4620   16.3480   19.0310 H   0  0  0  0  0  0  0  0  0  0  0  0
   12.9340   15.8000   19.8730 H   0  0  0  0  0  0  0  0  0  0  0  0
   11.6260   14.6700   19.5620 H   0  0  0  0  0  0  0  0  0  0  0  0
    9.7280   17.4700   21.0380 H   0  0  0  0  0  0  0  0  0  0  0  0
    9.2930   16.2060   22.9690 H   0  0  0  0  0  0  0  0  0  0  0  0
    7.0030   15.5190   21.0760 H   0  0  0  0  0  0  0  0  0  0  0  0
    7.3520   17.2180   21.4300 H   0  0  0  0  0  0  0  0  0  0  0  0
    6.9150   16.1140   22.7210 H   0  0  0  0  0  0  0  0  0  0  0  0
    8.3980   13.8020   22.4570 H   0  0  0  0  0  0  0  0  0  0  0  0
    9.3090   14.0660   20.9440 H   0  0  0  0  0  0  0  0  0  0  0  0
   11.0570   11.1480   22.9960 H   0  0  0  0  0  0  0  0  0  0  0  0
  1  2  1  0
  2  3  2  0
  3  4  1  0
  4  5  2  0
  5  6  1  0
  5  7  1  0
  7  8  1  0
  8  9  2  0
  8 10  1  0
 10 11  1  0
 11 12  1  0
 12 13  1  0
 12 14  1  0
 14 15  1  0
 15 16  1  0
 15 17  1  0
  7 18  2  0
 18  2  1  0
 17 10  1  0
  1 19  1  0
  1 20  1  0
  1 21  1  0
  3 22  1  0
  4 23  1  0
 11 24  1  0
 11 25  1  0
 12 26  1  1
 13 27  1  0
 13 28  1  0
 13 29  1  0
 14 30  1  0
 15 31  1  1
 16 32  1  0
 16 33  1  0
 16 34  1  0
 17 35  1  0
 17 36  1  0
 18 37  1  0
A    1
 C1 
A    2
 C2 
A    3
 C3 
A    4
 C4 
A    5
 C5 
A    6
 F1 
A    7
 C6 
A    8
 C7 
A    9
 O1 
A   10
 N1 
A   11
 C8 
A   12
 C9 
A   13
 C10
A   14
 N2 
A   15
 C11
A   16
 C12
A   17
 C13
A   18
 C14
A   19
 H1 
A   20
 H2 
A   21
 H3 
A   22
 H4 
A   23
 H5 
A   24
 H6 
A   25
 H7 
A   26
 H8 
A   27
 H9 
A   28
 H10
A   29
 H11
A   30
 H12
A   31
 H13
A   32
 H14
A   33
 H15
A   34
 H16
A   35
 H17
A   36
 H18
A   37
 H19
M  END
>  <ref_pdb>  (154) 
x0451_0A

>  <ref_mols>  (154) 
x0451_0A,x0554_0A,x0556_0A,x0566_0A,x0310_0A,x0416_0A

>  <original SMILES>  (154) 
Cc1ccc(F)c(C(=O)N2C[C@@H](C)N[C@@H](C)C2)c1

>  <rationale>  (154) 
info info set:ROCS-shape_Q1;Warhead nanÅ to Cys110:SG; hbond:S87; hydroph_interaction:Y90+V124+D109+V84; 

>  <∆∆G>  (154) 
-7.781317

>  <comRMSD>  (154) 
0.740927

>  <ROCS_TanimotoCombo>  (154) 
0.411

>  <ROCS_ShapeTanimoto>  (154) 
0.259

>  <ROCS_ColorTanimoto>  (154) 
0.152

>  <distance>  (154) 
nan

$$$$
EN300_28280434
     RDKit          3D

 33 34  0  0  0  0  0  0  0  0999 V2000
   12.3750   15.2760   20.5200 C   0  0  0  0  0  0  0  0  0  0  0  0
   11.4030   14.9500   21.5720 C   0  0  0  0  0  0  0  0  0  0  0  0
   10.1720   14.5010   20.8430 C   0  0  0  0  0  0  0  0  0  0  0  0
   11.0920   16.1730   22.3540 C   0  0  0  0  0  0  0  0  0  0  0  0
   11.9020   13.9040   22.3910 O   0  0  0  0  0  0  0  0  0  0  0  0
   11.0970   13.3600   23.3260 C   0  0  0  0  0  0  0  0  0  0  0  0
   10.7920   13.9700   24.3370 O   0  0  0  0  0  0  0  0  0  0  0  0
   10.6560   12.0870   23.0470 N   0  0  0  0  0  0  0  0  0  0  0  0
    9.5890   11.4400   23.7790 C   0  0  0  0  0  0  0  0  0  0  0  0
    9.4910   10.0420   23.6230 C   0  0  0  0  0  0  0  0  0  0  0  0
   10.2720    9.2170   22.8600 C   0  0  0  0  0  0  0  0  0  0  0  0
    9.6290    8.0540   22.7720 N   0  0  0  0  0  0  0  0  0  0  0  0
    8.4680    9.5520   24.3590 O   0  0  0  0  0  0  0  0  0  0  0  0
    7.8950   10.6290   24.9930 C   0  0  0  0  0  0  0  0  0  0  0  0
    6.6960   10.5060   25.9320 C   0  0  0  0  0  0  0  0  0  0  0  0
    6.2920   11.8680   26.4750 C   0  0  0  0  0  0  0  0  0  0  0  0
    6.9880   13.0010   26.1010 C   0  0  0  0  0  0  0  0  0  0  0  0
    8.0870   13.0140   25.2260 C   0  0  0  0  0  0  0  0  0  0  0  0
    8.5500   11.8320   24.6660 C   0  0  0  0  0  0  0  0  0  0  0  0
   13.2860   15.7160   20.9320 H   0  0  0  0  0  0  0  0  0  0  0  0
   12.6360   14.3710   19.9640 H   0  0  0  0  0  0  0  0  0  0  0  0
   11.9400   15.9810   19.8120 H   0  0  0  0  0  0  0  0  0  0  0  0
   10.2920   13.8620   19.9720 H   0  0  0  0  0  0  0  0  0  0  0  0
    9.6370   15.3890   20.4960 H   0  0  0  0  0  0  0  0  0  0  0  0
    9.5280   13.9770   21.5510 H   0  0  0  0  0  0  0  0  0  0  0  0
   11.3090   15.9950   23.4130 H   0  0  0  0  0  0  0  0  0  0  0  0
   10.0270   16.4260   22.2690 H   0  0  0  0  0  0  0  0  0  0  0  0
   11.6770   17.0000   21.9740 H   0  0  0  0  0  0  0  0  0  0  0  0
   10.8480   11.7930   22.0880 H   0  0  0  0  0  0  0  0  0  0  0  0
    6.1990    9.5740   26.1760 H   0  0  0  0  0  0  0  0  0  0  0  0
    5.4540   11.9400   27.1560 H   0  0  0  0  0  0  0  0  0  0  0  0
    6.5920   13.9130   26.5620 H   0  0  0  0  0  0  0  0  0  0  0  0
    8.5780   13.9530   24.9850 H   0  0  0  0  0  0  0  0  0  0  0  0
  1  2  1  0
  2  3  1  0
  2  4  1  0
  2  5  1  0
  5  6  1  0
  6  7  2  0
  6  8  1  0
  8  9  1  0
  9 10  2  0
 10 11  1  0
 11 12  3  0
 10 13  1  0
 13 14  1  0
 14 15  2  0
 15 16  1  0
 16 17  2  0
 17 18  1  0
 18 19  2  0
 19  9  1  0
 19 14  1  0
  1 20  1  0
  1 21  1  0
  1 22  1  0
  3 23  1  0
  3 24  1  0
  3 25  1  0
  4 26  1  0
  4 27  1  0
  4 28  1  0
  8 29  1  0
 15 30  1  0
 16 31  1  0
 17 32  1  0
 18 33  1  0
A    1
 C1 
A    2
 C2 
A    3
 C3 
A    4
 C4 
A    5
 O1 
A    6
 C5 
A    7
 O2 
A    8
 N1 
A    9
 C6 
A   10
 C7 
A   11
 C8 
A   12
 N2 
A   13
 O3 
A   14
 C9 
A   15
 C10
A   16
 C11
A   17
 C12
A   18
 C13
A   19
 C14
A   20
 H1 
A   21
 H2 
A   22
 H3 
A   23
 H4 
A   24
 H5 
A   25
 H6 
A   26
 H7 
A   27
 H8 
A   28
 H9 
A   29
 H10
A   30
 H11
A   31
 H12
A   32
 H13
A   33
 H14
M  END
>  <ref_pdb>  (155) 
x0451_0A

>  <ref_mols>  (155) 
x0451_0A,x0554_0A,x0556_0A,x0566_0A,x0310_0A,x0416_0A

>  <original SMILES>  (155) 
CC(C)(C)OC(=O)Nc1c(C#N)oc2ccccc12

>  <rationale>  (155) 
info info set:ROCS-BB-1RB;Warhead nanÅ to Cys110:SG; hbond:S125+T126; hydroph_interaction:Y89+Y90; 

>  <∆∆G>  (155) 
-7.778682

>  <comRMSD>  (155) 
0.503567

>  <ROCS_TanimotoCombo>  (155) 
0.543

>  <ROCS_ShapeTanimoto>  (155) 
0.357

>  <ROCS_ColorTanimoto>  (155) 
0.186

>  <distance>  (155) 
nan

$$$$
Z56948416
     RDKit          3D

 27 27  0  0  0  0  0  0  0  0999 V2000
    8.3180   13.9770   23.9470 C   0  0  0  0  0  0  0  0  0  0  0  0
    8.2310   12.5800   24.3800 C   0  0  0  0  0  0  0  0  0  0  0  0
    7.1640   12.1590   25.2260 C   0  0  0  0  0  0  0  0  0  0  0  0
    7.2360   10.6820   25.5570 C   0  0  0  0  0  0  0  0  0  0  0  0
    5.9820    9.9780   26.6000 S   0  0  0  0  0  0  0  0  0  0  0  0
    5.0410   11.3460   26.8860 C   0  0  0  0  0  0  0  0  0  0  0  0
    4.2260   12.4560   27.1320 N   0  0  0  0  0  0  0  0  0  0  0  0
    8.2510    9.8840   25.0600 C   0  0  0  0  0  0  0  0  0  0  0  0
    9.2690   10.3340   24.2420 C   0  0  0  0  0  0  0  0  0  0  0  0
   10.1970    9.4550   23.8180 C   0  0  0  0  0  0  0  0  0  0  0  0
    9.2590   11.6940   23.9080 C   0  0  0  0  0  0  0  0  0  0  0  0
   10.2200   12.2210   23.1330 N   0  0  0  0  0  0  0  0  0  0  0  0
   10.8610   13.4380   23.2490 C   0  0  0  0  0  0  0  0  0  0  0  0
   10.9100   14.1580   24.2420 O   0  0  0  0  0  0  0  0  0  0  0  0
   11.5290   13.8230   21.9630 C   0  0  0  0  0  0  0  0  0  0  0  0
   11.9230   15.5390   21.8530 Cl  0  0  0  0  0  0  0  0  0  0  0  0
    7.3300   14.4430   23.9340 H   0  0  0  0  0  0  0  0  0  0  0  0
    8.9570   14.5530   24.6220 H   0  0  0  0  0  0  0  0  0  0  0  0
    8.7300   14.0370   22.9350 H   0  0  0  0  0  0  0  0  0  0  0  0
    6.3870   12.8130   25.5890 H   0  0  0  0  0  0  0  0  0  0  0  0
    8.3340    8.8170   25.2760 H   0  0  0  0  0  0  0  0  0  0  0  0
    9.7110    8.4930   23.6390 H   0  0  0  0  0  0  0  0  0  0  0  0
   10.7580    9.6760   22.9120 H   0  0  0  0  0  0  0  0  0  0  0  0
   10.9720    9.3190   24.5830 H   0  0  0  0  0  0  0  0  0  0  0  0
   10.4660   11.7560   22.2520 H   0  0  0  0  0  0  0  0  0  0  0  0
   10.8460   13.6190   21.1380 H   0  0  0  0  0  0  0  0  0  0  0  0
   12.4470   13.2370   21.8410 H   0  0  0  0  0  0  0  0  0  0  0  0
  1  2  1  0
  2  3  2  0
  3  4  1  0
  4  5  1  0
  5  6  1  0
  6  7  3  0
  4  8  2  0
  8  9  1  0
  9 10  1  0
  9 11  2  0
 11 12  1  0
 12 13  1  0
 13 14  2  0
 13 15  1  0
 15 16  1  0
 11  2  1  0
  1 17  1  0
  1 18  1  0
  1 19  1  0
  3 20  1  0
  8 21  1  0
 10 22  1  0
 10 23  1  0
 10 24  1  0
 12 25  1  0
 15 26  1  0
 15 27  1  0
A    1
 C1 
A    2
 C2 
A    3
 C3 
A    4
 C4 
A    5
 S1 
A    6
 C5 
A    7
 N1 
A    8
 C6 
A    9
 C7 
A   10
 C8 
A   11
 C9 
A   12
 N2 
A   13
 C10
A   14
 O1 
A   15
 C11
A   16
CL1 
A   17
 H1 
A   18
 H2 
A   19
 H3 
A   20
 H4 
A   21
 H5 
A   22
 H6 
A   23
 H7 
A   24
 H8 
A   25
 H9 
A   26
 H10
A   27
 H11
M  END
>  <ref_pdb>  (156) 
x0451_0A

>  <ref_mols>  (156) 
x0451_0A,x0554_0A,x0556_0A,x0566_0A,x0310_0A,x0416_0A

>  <original SMILES>  (156) 
Cc1cc(SC#N)cc(C)c1NC(=O)CCl

>  <rationale>  (156) 
info info set:ROCS-electro;Warhead 4.297182223271432Å to Cys110:SG; halogenbond:S87; hbond:S125; 

>  <∆∆G>  (156) 
-7.764345

>  <comRMSD>  (156) 
0.401371

>  <ROCS_TanimotoCombo>  (156) 
0.437

>  <ROCS_ShapeTanimoto>  (156) 
0.284

>  <ROCS_ColorTanimoto>  (156) 
0.153

>  <distance>  (156) 
4.297182

$$$$
Z56912092
     RDKit          3D

 25 25  0  0  0  0  0  0  0  0999 V2000
    6.9910   12.7170   26.1670 C   0  0  0  0  0  0  0  0  0  0  0  0
    8.0580   12.9820   25.2660 O   0  0  0  0  0  0  0  0  0  0  0  0
    8.6300   11.8990   24.6570 C   0  0  0  0  0  0  0  0  0  0  0  0
    8.1550   10.5740   24.7470 C   0  0  0  0  0  0  0  0  0  0  0  0
    8.8340    9.5220   24.0750 C   0  0  0  0  0  0  0  0  0  0  0  0
    9.9640    9.7920   23.3250 C   0  0  0  0  0  0  0  0  0  0  0  0
   10.4140   11.0840   23.2480 C   0  0  0  0  0  0  0  0  0  0  0  0
    9.7850   12.1280   23.8850 C   0  0  0  0  0  0  0  0  0  0  0  0
   10.5340   13.4140   23.6000 C   0  0  0  0  0  0  0  0  0  0  0  0
   10.7120   14.1890   24.5360 O   0  0  0  0  0  0  0  0  0  0  0  0
   10.9680   13.6680   22.3130 N   0  0  0  0  0  0  0  0  0  0  0  0
   11.5430   14.9720   21.8670 C   0  0  0  0  0  0  0  0  0  0  0  0
   11.4830   16.0470   22.4580 O   0  0  0  0  0  0  0  0  0  0  0  0
   12.1850   14.8670   20.6430 C   0  0  0  0  0  0  0  0  0  0  0  0
   11.2550   15.6360   19.3510 Cl  0  0  0  0  0  0  0  0  0  0  0  0
    6.0600   12.5160   25.6250 H   0  0  0  0  0  0  0  0  0  0  0  0
    6.8650   13.5350   26.8840 H   0  0  0  0  0  0  0  0  0  0  0  0
    7.2480   11.8150   26.7320 H   0  0  0  0  0  0  0  0  0  0  0  0
    7.2710   10.3310   25.3250 H   0  0  0  0  0  0  0  0  0  0  0  0
    8.4860    8.5000   24.1360 H   0  0  0  0  0  0  0  0  0  0  0  0
   10.5560    9.0570   22.7710 H   0  0  0  0  0  0  0  0  0  0  0  0
   11.3110   11.2950   22.6570 H   0  0  0  0  0  0  0  0  0  0  0  0
   11.0960   12.8600   21.6790 H   0  0  0  0  0  0  0  0  0  0  0  0
   12.3250   13.8170   20.3670 H   0  0  0  0  0  0  0  0  0  0  0  0
   13.1490   15.3700   20.7120 H   0  0  0  0  0  0  0  0  0  0  0  0
  1  2  1  0
  2  3  1  0
  3  4  2  0
  4  5  1  0
  5  6  2  0
  6  7  1  0
  7  8  2  0
  8  9  1  0
  9 10  2  0
  9 11  1  0
 11 12  1  0
 12 13  2  0
 12 14  1  0
 14 15  1  0
  8  3  1  0
  1 16  1  0
  1 17  1  0
  1 18  1  0
  4 19  1  0
  5 20  1  0
  6 21  1  0
  7 22  1  0
 11 23  1  0
 14 24  1  0
 14 25  1  0
A    1
 C1 
A    2
 O1 
A    3
 C2 
A    4
 C3 
A    5
 C4 
A    6
 C5 
A    7
 C6 
A    8
 C7 
A    9
 C8 
A   10
 O2 
A   11
 N1 
A   12
 C9 
A   13
 O3 
A   14
 C10
A   15
CL1 
A   16
 H1 
A   17
 H2 
A   18
 H3 
A   19
 H4 
A   20
 H5 
A   21
 H6 
A   22
 H7 
A   23
 H8 
A   24
 H9 
A   25
 H10
M  END
>  <ref_pdb>  (157) 
x0451_0A

>  <ref_mols>  (157) 
x0451_0A,x0554_0A,x0556_0A,x0566_0A,x0310_0A,x0416_0A

>  <original SMILES>  (157) 
COc1ccccc1C(=O)NC(=O)CCl

>  <rationale>  (157) 
info info set:ROCS-electro;Warhead 5.558563277502558Å to Cys110:SG; hbond:S87+S125; 

>  <∆∆G>  (157) 
-7.764127

>  <comRMSD>  (157) 
0.618366

>  <ROCS_TanimotoCombo>  (157) 
0.438

>  <ROCS_ShapeTanimoto>  (157) 
0.284

>  <ROCS_ColorTanimoto>  (157) 
0.154

>  <distance>  (157) 
5.558563

$$$$
Z1354597695
     RDKit          3D

 30 30  0  0  0  0  0  0  0  0999 V2000
    6.6770   12.4920   26.1720 C   0  0  0  0  0  0  0  0  0  0  0  0
    7.7920   11.8870   25.3360 C   0  0  0  0  0  0  0  0  0  0  0  0
    8.8490   12.8340   24.8820 C   0  0  0  0  0  0  0  0  0  0  0  0
    9.9260   12.1710   24.0600 C   0  0  0  0  0  0  0  0  0  0  0  0
   11.2020   13.3050   23.5530 S   0  0  0  0  0  6  0  0  0  0  0  0
   10.9370   14.5560   24.2350 O   0  0  0  0  0  0  0  0  0  0  0  0
   12.4780   12.6430   23.6740 O   0  0  0  0  0  0  0  0  0  0  0  0
   10.8690   13.6260   21.9610 N   0  0  0  0  0  0  0  0  0  0  0  0
    9.8780   14.6440   21.6340 C   0  0  0  0  0  0  0  0  0  0  0  0
   10.3100   15.5310   20.4820 C   0  0  0  0  0  0  0  0  0  0  0  0
   10.0340   16.8910   20.7940 O   0  0  0  0  0  0  0  0  0  0  0  0
    9.8810   10.7810   23.7650 C   0  0  0  0  0  0  0  0  0  0  0  0
   10.8340   10.1440   23.0170 C   0  0  0  0  0  0  0  0  0  0  0  0
    8.8240    9.9910   24.2550 C   0  0  0  0  0  0  0  0  0  0  0  0
    7.8260   10.5720   25.0260 C   0  0  0  0  0  0  0  0  0  0  0  0
    6.5350    9.7160   25.6830 Cl  0  0  0  0  0  0  0  0  0  0  0  0
    6.8710   12.3480   27.2410 H   0  0  0  0  0  0  0  0  0  0  0  0
    6.6140   13.5620   25.9400 H   0  0  0  0  0  0  0  0  0  0  0  0
    5.7040   12.0440   25.9440 H   0  0  0  0  0  0  0  0  0  0  0  0
    8.8410   13.8970   25.1290 H   0  0  0  0  0  0  0  0  0  0  0  0
   11.0400   12.8480   21.3200 H   0  0  0  0  0  0  0  0  0  0  0  0
    8.9610   14.1260   21.3790 H   0  0  0  0  0  0  0  0  0  0  0  0
    9.6650   15.2500   22.5200 H   0  0  0  0  0  0  0  0  0  0  0  0
   11.3760   15.4230   20.2460 H   0  0  0  0  0  0  0  0  0  0  0  0
    9.7310   15.2810   19.5860 H   0  0  0  0  0  0  0  0  0  0  0  0
    9.9140   17.3690   19.9420 H   0  0  0  0  0  0  0  0  0  0  0  0
   11.4030    9.4770   23.6680 H   0  0  0  0  0  0  0  0  0  0  0  0
   11.4910   10.9080   22.6170 H   0  0  0  0  0  0  0  0  0  0  0  0
   10.5260    9.5460   22.1620 H   0  0  0  0  0  0  0  0  0  0  0  0
    8.7900    8.9270   24.0370 H   0  0  0  0  0  0  0  0  0  0  0  0
  1  2  1  0
  2  3  2  0
  3  4  1  0
  4  5  1  0
  5  6  2  0
  5  7  2  0
  5  8  1  0
  8  9  1  0
  9 10  1  0
 10 11  1  0
  4 12  2  0
 12 13  1  0
 12 14  1  0
 14 15  2  0
 15 16  1  0
 15  2  1  0
  1 17  1  0
  1 18  1  0
  1 19  1  0
  3 20  1  0
  8 21  1  0
  9 22  1  0
  9 23  1  0
 10 24  1  0
 10 25  1  0
 11 26  1  0
 13 27  1  0
 13 28  1  0
 13 29  1  0
 14 30  1  0
A    1
 C1 
A    2
 C2 
A    3
 C3 
A    4
 C4 
A    5
 S1 
A    6
 O1 
A    7
 O2 
A    8
 N1 
A    9
 C5 
A   10
 C6 
A   11
 O3 
A   12
 C7 
A   13
 C8 
A   14
 C9 
A   15
 C10
A   16
CL1 
A   17
 H1 
A   18
 H2 
A   19
 H3 
A   20
 H4 
A   21
 H5 
A   22
 H6 
A   23
 H7 
A   24
 H8 
A   25
 H9 
A   26
 H10
A   27
 H11
A   28
 H12
A   29
 H13
A   30
 H14
M  END
>  <ref_pdb>  (158) 
x0451_0A

>  <ref_mols>  (158) 
x0451_0A,x0554_0A,x0556_0A,x0566_0A,x0310_0A,x0416_0A

>  <original SMILES>  (158) 
Cc1cc(S(=O)(=O)NCCO)c(C)cc1Cl

>  <rationale>  (158) 
info info set:ROCS-shape_Q1;Warhead nanÅ to Cys110:SG; hbond:S87; hydroph_interaction:A110; 

>  <∆∆G>  (158) 
-7.763532

>  <comRMSD>  (158) 
0.780795

>  <ROCS_TanimotoCombo>  (158) 
0.432

>  <ROCS_ShapeTanimoto>  (158) 
0.285

>  <ROCS_ColorTanimoto>  (158) 
0.147

>  <distance>  (158) 
nan

$$$$
Z1456610121
     RDKit          3D

 35 36  0  0  0  0  0  0  0  0999 V2000
   13.5760   12.2550   23.8100 C   0  0  0  0  0  0  0  0  0  0  0  0
   12.2500   11.3930   24.6190 S   0  0  0  0  0  0  0  0  0  0  0  0
   10.9030   12.2100   23.6750 C   0  0  2  0  0  0  0  0  0  0  0  0
   10.8870   13.7600   23.8360 C   0  0  0  0  0  0  0  0  0  0  0  0
   10.9970   14.3020   24.9330 O   0  0  0  0  0  0  0  0  0  0  0  0
   10.7280   14.5420   22.6940 N   0  0  0  0  0  0  0  0  0  0  0  0
   10.1940   13.9840   21.5260 C   0  0  0  0  0  0  0  0  0  0  0  0
   10.7330   14.7230   20.3230 C   0  0  0  0  0  0  0  0  0  0  0  0
   11.3170   15.9740   20.8640 C   0  0  1  0  0  0  0  0  0  0  0  0
   10.3660   17.0700   20.7370 N   0  0  0  0  0  0  0  0  0  0  0  0
   11.6820   15.5660   22.3030 C   0  0  0  0  0  0  0  0  0  0  0  0
    9.6650   11.4740   24.1300 C   0  0  0  0  0  0  0  0  0  0  0  0
    8.7770   12.0400   25.0500 C   0  0  0  0  0  0  0  0  0  0  0  0
    7.6530   11.3390   25.4700 C   0  0  0  0  0  0  0  0  0  0  0  0
    7.4050   10.0520   24.9710 C   0  0  0  0  0  0  0  0  0  0  0  0
    8.2850    9.4810   24.0500 C   0  0  0  0  0  0  0  0  0  0  0  0
    9.4060   10.1860   23.6310 C   0  0  0  0  0  0  0  0  0  0  0  0
   13.6170   13.3090   24.1060 H   0  0  0  0  0  0  0  0  0  0  0  0
   13.3860   12.1940   22.7380 H   0  0  0  0  0  0  0  0  0  0  0  0
   14.5470   11.7960   24.0160 H   0  0  0  0  0  0  0  0  0  0  0  0
   11.1050   11.9860   22.6290 H   0  0  0  0  0  0  0  0  0  0  0  0
    9.1040   14.0170   21.5970 H   0  0  0  0  0  0  0  0  0  0  0  0
   10.5540   12.9950   21.5660 H   0  0  0  0  0  0  0  0  0  0  0  0
    9.9080   14.9590   19.6430 H   0  0  0  0  0  0  0  0  0  0  0  0
   11.4600   14.1240   19.7660 H   0  0  0  0  0  0  0  0  0  0  0  0
   12.2340   16.1610   20.3080 H   0  0  0  0  0  0  0  0  0  0  0  0
    9.4120   16.7070   20.7750 H   0  0  0  0  0  0  0  0  0  0  0  0
   10.4600   17.6840   21.5450 H   0  0  0  0  0  0  0  0  0  0  0  0
   12.6930   15.1480   22.3830 H   0  0  0  0  0  0  0  0  0  0  0  0
   11.5910   16.4350   22.9490 H   0  0  0  0  0  0  0  0  0  0  0  0
    8.9550   13.0370   25.4510 H   0  0  0  0  0  0  0  0  0  0  0  0
    6.9680   11.7870   26.1870 H   0  0  0  0  0  0  0  0  0  0  0  0
    6.5250    9.5090   25.3050 H   0  0  0  0  0  0  0  0  0  0  0  0
    8.1050    8.4890   23.6560 H   0  0  0  0  0  0  0  0  0  0  0  0
   10.0810    9.7230   22.9140 H   0  0  0  0  0  0  0  0  0  0  0  0
  1  2  1  0
  2  3  1  0
  3  4  1  0
  4  5  2  0
  4  6  1  0
  6  7  1  0
  7  8  1  0
  8  9  1  0
  9 10  1  0
  9 11  1  0
  3 12  1  0
 12 13  2  0
 13 14  1  0
 14 15  2  0
 15 16  1  0
 16 17  2  0
 11  6  1  0
 17 12  1  0
  1 18  1  0
  1 19  1  0
  1 20  1  0
  3 21  1  6
  7 22  1  0
  7 23  1  0
  8 24  1  0
  8 25  1  0
  9 26  1  6
 10 27  1  0
 10 28  1  0
 11 29  1  0
 11 30  1  0
 13 31  1  0
 14 32  1  0
 15 33  1  0
 16 34  1  0
 17 35  1  0
A    1
 C1 
A    2
 S1 
A    3
 C2 
A    4
 C3 
A    5
 O1 
A    6
 N1 
A    7
 C4 
A    8
 C5 
A    9
 C6 
A   10
 N2 
A   11
 C7 
A   12
 C8 
A   13
 C9 
A   14
 C10
A   15
 C11
A   16
 C12
A   17
 C13
A   18
 H1 
A   19
 H2 
A   20
 H3 
A   21
 H4 
A   22
 H5 
A   23
 H6 
A   24
 H7 
A   25
 H8 
A   26
 H9 
A   27
 H10
A   28
 H11
A   29
 H12
A   30
 H13
A   31
 H14
A   32
 H15
A   33
 H16
A   34
 H17
A   35
 H18
M  END
>  <ref_pdb>  (159) 
x0451_0A

>  <ref_mols>  (159) 
x0451_0A,x0554_0A,x0556_0A,x0566_0A,x0310_0A,x0416_0A

>  <original SMILES>  (159) 
CS[C@H](C(=O)N1CC[C@@H](N)C1)c1ccccc1

>  <rationale>  (159) 
info info set:ROCS-shape_Q1;Warhead nanÅ to Cys110:SG; hbond:S87; 

>  <∆∆G>  (159) 
-7.748052

>  <comRMSD>  (159) 
0.598888

>  <ROCS_TanimotoCombo>  (159) 
0.434

>  <ROCS_ShapeTanimoto>  (159) 
0.28

>  <ROCS_ColorTanimoto>  (159) 
0.154

>  <distance>  (159) 
nan

$$$$
EN300_27737098
     RDKit          3D

 33 34  0  0  0  0  0  0  0  0999 V2000
   11.0400   16.0220   22.5240 C   0  0  0  0  0  0  0  0  0  0  0  0
   11.3700   14.9990   21.5250 C   0  0  0  0  0  0  0  0  0  0  0  0
   12.3290   15.3450   20.5720 C   0  0  0  0  0  0  0  0  0  0  0  0
   10.0660   14.6490   20.8380 C   0  0  0  0  0  0  0  0  0  0  0  0
   11.8380   13.9310   22.3680 O   0  0  0  0  0  0  0  0  0  0  0  0
   11.0250   13.4110   23.3180 C   0  0  0  0  0  0  0  0  0  0  0  0
   10.5920   14.0990   24.4880 O   0  0  0  0  0  0  0  0  0  0  0  0
   10.7230   12.1480   22.9280 N   0  0  0  0  0  0  0  0  0  0  0  0
    9.9110   11.2360   23.5690 C   0  0  0  0  0  0  0  0  0  0  0  0
   10.0030    9.8450   23.4860 C   0  0  0  0  0  0  0  0  0  0  0  0
    9.0220    9.3140   24.2750 N   0  0  0  0  0  0  0  0  0  0  0  0
    8.2900   10.3240   24.8690 C   0  0  0  0  0  0  0  0  0  0  0  0
    7.1070   10.2810   25.8280 C   0  0  0  0  0  0  0  0  0  0  0  0
    6.5240   11.5590   26.2970 C   0  0  0  0  0  0  0  0  0  0  0  0
    5.0580   11.4990   27.4880 Br  0  0  0  0  0  0  0  0  0  0  0  0
    7.0490   12.7750   25.8680 C   0  0  0  0  0  0  0  0  0  0  0  0
    8.1390   12.7850   24.9880 C   0  0  0  0  0  0  0  0  0  0  0  0
    8.8200   11.5320   24.4420 C   0  0  0  0  0  0  0  0  0  0  0  0
   11.7330   16.8360   22.3950 H   0  0  0  0  0  0  0  0  0  0  0  0
   10.0070   16.3600   22.4060 H   0  0  0  0  0  0  0  0  0  0  0  0
   11.1400   15.6490   23.5470 H   0  0  0  0  0  0  0  0  0  0  0  0
   13.2490   15.8160   20.9130 H   0  0  0  0  0  0  0  0  0  0  0  0
   12.6310   14.4420   20.0280 H   0  0  0  0  0  0  0  0  0  0  0  0
   11.9070   15.9820   19.7920 H   0  0  0  0  0  0  0  0  0  0  0  0
    9.5320   15.5430   20.4960 H   0  0  0  0  0  0  0  0  0  0  0  0
   10.2560   14.0470   19.9500 H   0  0  0  0  0  0  0  0  0  0  0  0
    9.4100   14.0790   21.5050 H   0  0  0  0  0  0  0  0  0  0  0  0
   10.9860   11.9300   21.9710 H   0  0  0  0  0  0  0  0  0  0  0  0
   10.6760    9.1980   22.9400 H   0  0  0  0  0  0  0  0  0  0  0  0
    8.8730    8.3230   24.3940 H   0  0  0  0  0  0  0  0  0  0  0  0
    6.6900    9.3380   26.1700 H   0  0  0  0  0  0  0  0  0  0  0  0
    6.6250   13.7180   26.2070 H   0  0  0  0  0  0  0  0  0  0  0  0
    8.5240   13.7630   24.6750 H   0  0  0  0  0  0  0  0  0  0  0  0
  1  2  1  0
  2  3  1  0
  2  4  1  0
  2  5  1  0
  5  6  1  0
  6  7  2  0
  6  8  1  0
  8  9  1  0
  9 10  2  0
 10 11  1  0
 11 12  1  0
 12 13  2  0
 13 14  1  0
 14 15  1  0
 14 16  2  0
 16 17  1  0
 17 18  2  0
 18  9  1  0
 18 12  1  0
  1 19  1  0
  1 20  1  0
  1 21  1  0
  3 22  1  0
  3 23  1  0
  3 24  1  0
  4 25  1  0
  4 26  1  0
  4 27  1  0
  8 28  1  0
 10 29  1  0
 11 30  1  0
 13 31  1  0
 16 32  1  0
 17 33  1  0
A    1
 C1 
A    2
 C2 
A    3
 C3 
A    4
 C4 
A    5
 O1 
A    6
 C5 
A    7
 O2 
A    8
 N1 
A    9
 C6 
A   10
 C7 
A   11
 N2 
A   12
 C8 
A   13
 C9 
A   14
 C10
A   15
BR1 
A   16
 C11
A   17
 C12
A   18
 C13
A   19
 H1 
A   20
 H2 
A   21
 H3 
A   22
 H4 
A   23
 H5 
A   24
 H6 
A   25
 H7 
A   26
 H8 
A   27
 H9 
A   28
 H10
A   29
 H11
A   30
 H12
A   31
 H13
A   32
 H14
A   33
 H15
M  END
>  <ref_pdb>  (160) 
x0451_0A

>  <ref_mols>  (160) 
x0451_0A,x0554_0A,x0556_0A,x0566_0A,x0310_0A,x0416_0A

>  <original SMILES>  (160) 
CC(C)(C)OC(=O)Nc1c[nH]c2cc(Br)ccc12

>  <rationale>  (160) 
info info set:ROCS-BB-1RB;Warhead nanÅ to Cys110:SG; hbond:S125; hydroph_interaction:Y89+Y90; 

>  <∆∆G>  (160) 
-7.747692

>  <comRMSD>  (160) 
0.361454

>  <ROCS_TanimotoCombo>  (160) 
0.519

>  <ROCS_ShapeTanimoto>  (160) 
0.341

>  <ROCS_ColorTanimoto>  (160) 
0.178

>  <distance>  (160) 
nan

$$$$
EN300_12443291
     RDKit          3D

 42 43  0  0  0  0  0  0  0  0999 V2000
   12.3640   15.4380   22.0890 C   0  0  0  0  0  0  0  0  0  0  0  0
   11.3250   14.6160   21.4100 C   0  0  0  0  0  0  0  0  0  0  0  0
   10.0150   15.1260   21.3710 C   0  0  0  0  0  0  0  0  0  0  0  0
   11.7500   14.3730   19.9550 C   0  0  0  0  0  0  0  0  0  0  0  0
   11.1670   13.3980   22.1630 O   0  0  0  0  0  0  0  0  0  0  0  0
   10.5010   13.3700   23.3450 C   0  0  0  0  0  0  0  0  0  0  0  0
   10.6360   14.2600   24.1670 O   0  0  0  0  0  0  0  0  0  0  0  0
    9.7020   12.2750   23.5060 N   0  0  0  0  0  0  0  0  0  0  0  0
   10.2600   10.9770   23.2420 C   0  0  0  0  0  0  0  0  0  0  0  0
    9.4650    9.9180   23.8920 C   0  0  0  0  0  0  0  0  0  0  0  0
    9.0010    8.6780   23.1680 C   0  0  0  0  0  0  0  0  0  0  0  0
   10.5780    9.4830   24.7130 C   0  0  0  0  0  0  0  0  0  0  0  0
    8.4040   10.7720   24.6230 C   0  0  0  0  0  0  0  0  0  0  0  0
    7.2330   10.4240   25.5440 C   0  0  0  0  0  0  0  0  0  0  0  0
    6.4320   11.4420   26.0310 C   0  0  0  0  0  0  0  0  0  0  0  0
    5.3410   11.1470   26.8360 C   0  0  0  0  0  0  0  0  0  0  0  0
    4.7380   11.9290   27.5600 O   0  0  0  0  0  0  0  0  0  0  0  0
    4.9520    9.8600   26.7380 O   0  0  0  0  0  0  0  0  0  0  0  0
    6.7070   12.7770   25.7070 C   0  0  0  0  0  0  0  0  0  0  0  0
    7.7750   13.1170   24.8840 C   0  0  0  0  0  0  0  0  0  0  0  0
    8.6020   12.1270   24.3510 C   0  0  0  0  0  0  0  0  0  0  0  0
   11.8920   16.2910   22.5790 H   0  0  0  0  0  0  0  0  0  0  0  0
   12.8810   14.8500   22.8540 H   0  0  0  0  0  0  0  0  0  0  0  0
   13.1300   15.7780   21.3890 H   0  0  0  0  0  0  0  0  0  0  0  0
    9.2080   14.5700   21.8480 H   0  0  0  0  0  0  0  0  0  0  0  0
    9.9830   16.1240   21.8020 H   0  0  0  0  0  0  0  0  0  0  0  0
    9.7760   15.2110   20.3020 H   0  0  0  0  0  0  0  0  0  0  0  0
   12.1830   15.2690   19.4970 H   0  0  0  0  0  0  0  0  0  0  0  0
   12.5260   13.6120   19.8810 H   0  0  0  0  0  0  0  0  0  0  0  0
   10.9210   14.0400   19.3240 H   0  0  0  0  0  0  0  0  0  0  0  0
   10.3980   10.7830   22.2020 H   0  0  0  0  0  0  0  0  0  0  0  0
   11.2640   10.9740   23.6760 H   0  0  0  0  0  0  0  0  0  0  0  0
    9.5870    8.5050   22.2610 H   0  0  0  0  0  0  0  0  0  0  0  0
    9.1020    7.7870   23.7960 H   0  0  0  0  0  0  0  0  0  0  0  0
    7.9810    8.7600   22.8890 H   0  0  0  0  0  0  0  0  0  0  0  0
   10.3080    9.7100   25.6950 H   0  0  0  0  0  0  0  0  0  0  0  0
   11.4990   10.0290   24.4840 H   0  0  0  0  0  0  0  0  0  0  0  0
   10.7920    8.4370   24.5910 H   0  0  0  0  0  0  0  0  0  0  0  0
    7.0140    9.4100   25.8200 H   0  0  0  0  0  0  0  0  0  0  0  0
    5.4920    9.4670   25.9950 H   0  0  0  0  0  0  0  0  0  0  0  0
    6.0730   13.5690   26.1000 H   0  0  0  0  0  0  0  0  0  0  0  0
    7.9720   14.1590   24.6440 H   0  0  0  0  0  0  0  0  0  0  0  0
  1  2  1  0
  2  3  1  0
  2  4  1  0
  2  5  1  0
  5  6  1  0
  6  7  2  0
  6  8  1  0
  8  9  1  0
  9 10  1  0
 10 11  1  0
 10 12  1  0
 10 13  1  0
 13 14  2  0
 14 15  1  0
 15 16  1  0
 16 17  2  0
 16 18  1  0
 15 19  2  0
 19 20  1  0
 20 21  2  0
 21  8  1  0
 21 13  1  0
  1 22  1  0
  1 23  1  0
  1 24  1  0
  3 25  1  0
  3 26  1  0
  3 27  1  0
  4 28  1  0
  4 29  1  0
  4 30  1  0
  9 31  1  0
  9 32  1  0
 11 33  1  0
 11 34  1  0
 11 35  1  0
 12 36  1  0
 12 37  1  0
 12 38  1  0
 14 39  1  0
 18 40  1  0
 19 41  1  0
 20 42  1  0
A    1
 C1 
A    2
 C2 
A    3
 C3 
A    4
 C4 
A    5
 O1 
A    6
 C5 
A    7
 O2 
A    8
 N1 
A    9
 C6 
A   10
 C7 
A   11
 C8 
A   12
 C9 
A   13
 C10
A   14
 C11
A   15
 C12
A   16
 C13
A   17
 O3 
A   18
 O4 
A   19
 C14
A   20
 C15
A   21
 C16
A   22
 H1 
A   23
 H2 
A   24
 H3 
A   25
 H4 
A   26
 H5 
A   27
 H6 
A   28
 H7 
A   29
 H8 
A   30
 H9 
A   31
 H10
A   32
 H11
A   33
 H12
A   34
 H13
A   35
 H14
A   36
 H15
A   37
 H16
A   38
 H17
A   39
 H18
A   40
 H19
A   41
 H20
A   42
 H21
M  END
>  <ref_pdb>  (161) 
x0451_0A

>  <ref_mols>  (161) 
x0451_0A,x0554_0A,x0556_0A,x0566_0A,x0310_0A,x0416_0A

>  <original SMILES>  (161) 
CC(C)(C)OC(=O)N1CC(C)(C)c2cc(C(=O)O)ccc21

>  <rationale>  (161) 
info info set:ROCS-BB-1RB;Warhead nanÅ to Cys110:SG; hydroph_interaction:Y89+V124; 

>  <∆∆G>  (161) 
-7.742436

>  <comRMSD>  (161) 
0.704463

>  <ROCS_TanimotoCombo>  (161) 
0.508

>  <ROCS_ShapeTanimoto>  (161) 
0.357

>  <ROCS_ColorTanimoto>  (161) 
0.151

>  <distance>  (161) 
nan

$$$$
Z1139544324
     RDKit          3D

 43 44  0  0  0  0  0  0  0  0999 V2000
    9.0570   13.8710   25.3230 C   0  0  0  0  0  0  0  0  0  0  0  0
    8.7730   12.3920   25.0540 C   0  0  0  0  0  0  0  0  0  0  0  0
    7.5710   11.9360   25.6580 N   0  0  0  0  0  0  0  0  0  0  0  0
    7.5540   10.6680   25.3090 N   0  0  0  0  0  0  0  0  0  0  0  0
    6.3980   10.0680   25.8930 C   0  0  0  0  0  0  0  0  0  0  0  0
    8.6530   10.2560   24.4950 C   0  0  0  0  0  0  0  0  0  0  0  0
    8.9760    8.8890   23.9000 C   0  0  0  0  0  0  0  0  0  0  0  0
    9.4410   11.3910   24.3560 C   0  0  0  0  0  0  0  0  0  0  0  0
   10.7150   11.5260   23.6550 C   0  0  2  0  0  0  0  0  0  0  0  0
   11.8030   10.9700   24.3130 C   0  0  0  0  0  0  0  0  0  0  0  0
   12.8470   11.8520   24.3810 C   0  0  0  0  0  0  0  0  0  0  0  0
   12.5850   12.9200   23.5210 C   0  0  0  0  0  0  0  0  0  0  0  0
   11.1090   12.9820   23.5530 N   0  0  0  0  0  0  0  0  0  0  0  0
   10.4940   13.7280   22.4130 C   0  0  0  0  0  0  0  0  0  0  0  0
   10.9150   15.0330   22.1910 C   0  0  0  0  0  0  0  0  0  0  0  0
   10.0730   15.8480   21.1990 C   0  0  0  0  0  0  0  0  0  0  0  0
   12.3440   15.0560   21.6640 C   0  0  0  0  0  0  0  0  0  0  0  0
   10.8880   15.7800   23.4090 O   0  0  0  0  0  0  0  0  0  0  0  0
   10.0480   14.0150   25.7730 H   0  0  0  0  0  0  0  0  0  0  0  0
    8.3320   14.3040   26.0220 H   0  0  0  0  0  0  0  0  0  0  0  0
    9.0020   14.4670   24.4040 H   0  0  0  0  0  0  0  0  0  0  0  0
    5.6320    9.8500   25.1800 H   0  0  0  0  0  0  0  0  0  0  0  0
    6.6720    9.1780   26.4280 H   0  0  0  0  0  0  0  0  0  0  0  0
    5.9680   10.7520   26.6310 H   0  0  0  0  0  0  0  0  0  0  0  0
    8.3450    8.6700   23.0360 H   0  0  0  0  0  0  0  0  0  0  0  0
    8.8300    8.1060   24.6530 H   0  0  0  0  0  0  0  0  0  0  0  0
   10.0220    8.8360   23.5840 H   0  0  0  0  0  0  0  0  0  0  0  0
   10.6180   11.0840   22.6520 H   0  0  0  0  0  0  0  0  0  0  0  0
   12.1210   10.0320   23.8830 H   0  0  0  0  0  0  0  0  0  0  0  0
   11.4580   10.7240   25.2970 H   0  0  0  0  0  0  0  0  0  0  0  0
   13.7930   11.3780   24.1140 H   0  0  0  0  0  0  0  0  0  0  0  0
   12.9500   12.2090   25.4100 H   0  0  0  0  0  0  0  0  0  0  0  0
   12.9760   13.8390   23.9670 H   0  0  0  0  0  0  0  0  0  0  0  0
   12.9810   12.8860   22.5170 H   0  0  0  0  0  0  0  0  0  0  0  0
    9.4250   13.5440   22.4420 H   0  0  0  0  0  0  0  0  0  0  0  0
   10.8300   13.2500   21.5090 H   0  0  0  0  0  0  0  0  0  0  0  0
    9.0190   15.5500   21.2210 H   0  0  0  0  0  0  0  0  0  0  0  0
   10.1390   16.9190   21.4180 H   0  0  0  0  0  0  0  0  0  0  0  0
   10.4450   15.7180   20.1750 H   0  0  0  0  0  0  0  0  0  0  0  0
   12.6340   16.0520   21.3190 H   0  0  0  0  0  0  0  0  0  0  0  0
   12.4570   14.3590   20.8260 H   0  0  0  0  0  0  0  0  0  0  0  0
   13.0510   14.7310   22.4270 H   0  0  0  0  0  0  0  0  0  0  0  0
   11.0590   15.1570   24.1380 H   0  0  0  0  0  0  0  0  0  0  0  0
  1  2  1  0
  2  3  2  0
  3  4  1  0
  4  5  1  0
  4  6  1  0
  6  7  1  0
  6  8  2  0
  8  9  1  0
  9 10  1  0
 10 11  1  0
 11 12  1  0
 12 13  1  0
 13 14  1  0
 14 15  1  0
 15 16  1  0
 15 17  1  0
 15 18  1  0
  8  2  1  0
 13  9  1  0
  1 19  1  0
  1 20  1  0
  1 21  1  0
  5 22  1  0
  5 23  1  0
  5 24  1  0
  7 25  1  0
  7 26  1  0
  7 27  1  0
  9 28  1  6
 10 29  1  0
 10 30  1  0
 11 31  1  0
 11 32  1  0
 12 33  1  0
 12 34  1  0
 14 35  1  0
 14 36  1  0
 16 37  1  0
 16 38  1  0
 16 39  1  0
 17 40  1  0
 17 41  1  0
 17 42  1  0
 18 43  1  0
A    1
 C1 
A    2
 C2 
A    3
 N1 
A    4
 N2 
A    5
 C3 
A    6
 C4 
A    7
 C5 
A    8
 C6 
A    9
 C7 
A   10
 C8 
A   11
 C9 
A   12
 C10
A   13
 N3 
A   14
 C11
A   15
 C12
A   16
 C13
A   17
 C14
A   18
 O1 
A   19
 H1 
A   20
 H2 
A   21
 H3 
A   22
 H4 
A   23
 H5 
A   24
 H6 
A   25
 H7 
A   26
 H8 
A   27
 H9 
A   28
 H10
A   29
 H11
A   30
 H12
A   31
 H13
A   32
 H14
A   33
 H15
A   34
 H16
A   35
 H17
A   36
 H18
A   37
 H19
A   38
 H20
A   39
 H21
A   40
 H22
A   41
 H23
A   42
 H24
A   43
 H25
M  END
>  <ref_pdb>  (162) 
x0451_0A

>  <ref_mols>  (162) 
x0451_0A,x0554_0A,x0556_0A,x0566_0A,x0310_0A,x0416_0A

>  <original SMILES>  (162) 
Cc1nn(C)c(C)c1[C@@H]1CCCN1CC(C)(C)O

>  <rationale>  (162) 
info info set:ROCS-shape_Q1;Warhead nanÅ to Cys110:SG; hbond:S87; hydroph_interaction:Y89+A110; 

>  <∆∆G>  (162) 
-7.741713

>  <comRMSD>  (162) 
0.827137

>  <ROCS_TanimotoCombo>  (162) 
0.408

>  <ROCS_ShapeTanimoto>  (162) 
0.309

>  <ROCS_ColorTanimoto>  (162) 
0.099

>  <distance>  (162) 
nan

$$$$
Z1449601486
     RDKit          3D

 34 35  0  0  0  0  0  0  0  0999 V2000
   10.2410    8.9070   23.1090 C   0  0  0  0  0  0  0  0  0  0  0  0
    9.6360   10.1650   23.6250 C   0  0  0  0  0  0  0  0  0  0  0  0
   10.2790   11.3870   23.5000 C   0  0  0  0  0  0  0  0  0  0  0  0
    9.6660   12.5380   24.0030 C   0  0  0  0  0  0  0  0  0  0  0  0
   10.3790   13.8200   23.8730 C   0  0  0  0  0  0  0  0  0  0  0  0
   10.9950   14.2140   24.8570 O   0  0  0  0  0  0  0  0  0  0  0  0
   10.3450   14.5180   22.6820 N   0  0  0  0  0  0  0  0  0  0  0  0
    9.1820   14.6350   21.8320 C   0  0  0  0  0  0  0  0  0  0  0  0
    9.0680   16.0190   21.2130 C   0  0  0  0  0  0  0  0  0  0  0  0
   10.3660   16.6510   20.9470 N   0  0  0  0  0  0  0  0  0  0  0  0
   11.4700   15.6680   20.8020 C   0  0  2  0  0  0  0  0  0  0  0  0
   11.3650   14.9590   19.4510 C   0  0  0  0  0  0  0  0  0  0  0  0
   11.5970   14.6560   21.9550 C   0  0  0  0  0  0  0  0  0  0  0  0
    8.4140   12.4840   24.6220 C   0  0  0  0  0  0  0  0  0  0  0  0
    7.7770   11.2620   24.7480 C   0  0  0  0  0  0  0  0  0  0  0  0
    8.4070   10.1380   24.2500 C   0  0  0  0  0  0  0  0  0  0  0  0
    7.8190    8.9940   24.3760 F   0  0  0  0  0  0  0  0  0  0  0  0
    9.4740    8.1680   22.8570 H   0  0  0  0  0  0  0  0  0  0  0  0
   10.8950    8.4630   23.8620 H   0  0  0  0  0  0  0  0  0  0  0  0
   10.8230    9.1310   22.2120 H   0  0  0  0  0  0  0  0  0  0  0  0
   11.2530   11.4610   23.0160 H   0  0  0  0  0  0  0  0  0  0  0  0
    8.2890   14.3830   22.4170 H   0  0  0  0  0  0  0  0  0  0  0  0
    9.3010   13.9390   21.0230 H   0  0  0  0  0  0  0  0  0  0  0  0
    8.4550   16.6790   21.8420 H   0  0  0  0  0  0  0  0  0  0  0  0
    8.5570   15.9040   20.2670 H   0  0  0  0  0  0  0  0  0  0  0  0
   10.5670   17.3180   21.6870 H   0  0  0  0  0  0  0  0  0  0  0  0
   12.4060   16.2270   20.8030 H   0  0  0  0  0  0  0  0  0  0  0  0
   12.3580   14.7820   19.0160 H   0  0  0  0  0  0  0  0  0  0  0  0
   10.7890   15.5610   18.7380 H   0  0  0  0  0  0  0  0  0  0  0  0
   10.8630   13.9940   19.5480 H   0  0  0  0  0  0  0  0  0  0  0  0
   12.3630   14.9770   22.6730 H   0  0  0  0  0  0  0  0  0  0  0  0
   11.9010   13.6750   21.5680 H   0  0  0  0  0  0  0  0  0  0  0  0
    7.9400   13.3850   25.0060 H   0  0  0  0  0  0  0  0  0  0  0  0
    6.8070   11.1740   25.2270 H   0  0  0  0  0  0  0  0  0  0  0  0
  1  2  1  0
  2  3  2  0
  3  4  1  0
  4  5  1  0
  5  6  2  0
  5  7  1  0
  7  8  1  0
  8  9  1  0
  9 10  1  0
 10 11  1  0
 11 12  1  0
 11 13  1  0
  4 14  2  0
 14 15  1  0
 15 16  2  0
 16 17  1  0
 16  2  1  0
 13  7  1  0
  1 18  1  0
  1 19  1  0
  1 20  1  0
  3 21  1  0
  8 22  1  0
  8 23  1  0
  9 24  1  0
  9 25  1  0
 10 26  1  0
 11 27  1  6
 12 28  1  0
 12 29  1  0
 12 30  1  0
 13 31  1  0
 13 32  1  0
 14 33  1  0
 15 34  1  0
A    1
 C1 
A    2
 C2 
A    3
 C3 
A    4
 C4 
A    5
 C5 
A    6
 O1 
A    7
 N1 
A    8
 C6 
A    9
 C7 
A   10
 N2 
A   11
 C8 
A   12
 C9 
A   13
 C10
A   14
 C11
A   15
 C12
A   16
 C13
A   17
 F1 
A   18
 H1 
A   19
 H2 
A   20
 H3 
A   21
 H4 
A   22
 H5 
A   23
 H6 
A   24
 H7 
A   25
 H8 
A   26
 H9 
A   27
 H10
A   28
 H11
A   29
 H12
A   30
 H13
A   31
 H14
A   32
 H15
A   33
 H16
A   34
 H17
M  END
>  <ref_pdb>  (163) 
x0451_0A

>  <ref_mols>  (163) 
x0451_0A,x0554_0A,x0556_0A,x0566_0A,x0310_0A,x0416_0A

>  <original SMILES>  (163) 
Cc1cc(C(=O)N2CCN[C@H](C)C2)ccc1F

>  <rationale>  (163) 
info info set:ROCS-shape_Q1;Warhead nanÅ to Cys110:SG; hbond:S87; hydroph_interaction:V124+D109; 

>  <∆∆G>  (163) 
-7.741264

>  <comRMSD>  (163) 
0.517795

>  <ROCS_TanimotoCombo>  (163) 
0.438

>  <ROCS_ShapeTanimoto>  (163) 
0.275

>  <ROCS_ColorTanimoto>  (163) 
0.163

>  <distance>  (163) 
nan

$$$$
Z440633706
     RDKit          3D

 23 23  0  0  0  0  0  0  0  0999 V2000
   11.8600   15.3780   21.7200 C   0  0  0  0  0  0  0  0  0  0  0  0
   11.9140   13.9250   22.1470 C   0  0  0  0  0  0  0  0  0  0  0  0
   10.9740   13.4900   23.2360 C   0  0  0  0  0  0  0  0  0  0  0  0
   10.6630   14.3810   24.2250 O   0  0  0  0  0  0  0  0  0  0  0  0
   10.5500   12.1890   23.0530 N   0  0  0  0  0  0  0  0  0  0  0  0
    9.5250   11.4990   23.7570 C   0  0  0  0  0  0  0  0  0  0  0  0
    8.6060   12.1750   24.5630 C   0  0  0  0  0  0  0  0  0  0  0  0
    7.6150   11.4690   25.2410 C   0  0  0  0  0  0  0  0  0  0  0  0
    6.7380   12.1240   26.0100 F   0  0  0  0  0  0  0  0  0  0  0  0
    7.5440   10.0850   25.1140 C   0  0  0  0  0  0  0  0  0  0  0  0
    8.4550    9.4200   24.3130 C   0  0  0  0  0  0  0  0  0  0  0  0
    9.4380   10.0940   23.6340 C   0  0  0  0  0  0  0  0  0  0  0  0
   10.3850    9.2880   22.7770 C   0  0  0  0  0  0  0  0  0  0  0  0
   11.1680   16.1010   22.1670 H   0  0  0  0  0  0  0  0  0  0  0  0
   12.5320   15.7180   20.9280 H   0  0  0  0  0  0  0  0  0  0  0  0
   12.5980   13.2210   21.7030 H   0  0  0  0  0  0  0  0  0  0  0  0
   10.7870   11.8070   22.1220 H   0  0  0  0  0  0  0  0  0  0  0  0
    8.6580   13.2560   24.6650 H   0  0  0  0  0  0  0  0  0  0  0  0
    6.7720    9.5390   25.6450 H   0  0  0  0  0  0  0  0  0  0  0  0
    8.3850    8.3330   24.2250 H   0  0  0  0  0  0  0  0  0  0  0  0
   11.0450    9.9500   22.2220 H   0  0  0  0  0  0  0  0  0  0  0  0
   10.9590    8.5920   23.3950 H   0  0  0  0  0  0  0  0  0  0  0  0
    9.7940    8.7180   22.0520 H   0  0  0  0  0  0  0  0  0  0  0  0
  1  2  2  0
  2  3  1  0
  3  4  2  0
  3  5  1  0
  5  6  1  0
  6  7  2  0
  7  8  1  0
  8  9  1  0
  8 10  2  0
 10 11  1  0
 11 12  2  0
 12 13  1  0
 12  6  1  0
  1 14  1  0
  1 15  1  0
  2 16  1  0
  5 17  1  0
  7 18  1  0
 10 19  1  0
 11 20  1  0
 13 21  1  0
 13 22  1  0
 13 23  1  0
A    1
 C1 
A    2
 C2 
A    3
 C3 
A    4
 O1 
A    5
 N1 
A    6
 C4 
A    7
 C5 
A    8
 C6 
A    9
 F1 
A   10
 C7 
A   11
 C8 
A   12
 C9 
A   13
 C10
A   14
 H1 
A   15
 H2 
A   16
 H3 
A   17
 H4 
A   18
 H5 
A   19
 H6 
A   20
 H7 
A   21
 H8 
A   22
 H9 
A   23
 H10
M  END
>  <ref_pdb>  (164) 
x0451_0A

>  <ref_mols>  (164) 
x0451_0A,x0554_0A,x0556_0A,x0566_0A,x0310_0A,x0416_0A

>  <original SMILES>  (164) 
C=CC(=O)Nc1cc(F)ccc1C

>  <rationale>  (164) 
info info set:ROCS-electro;Warhead 5.642361415223239Å to Cys110:SG; hbond:S125; hydroph_interaction:Y89+A110+V124; 

>  <∆∆G>  (164) 
-7.735003

>  <comRMSD>  (164) 
0.311291

>  <ROCS_TanimotoCombo>  (164) 
0.419

>  <ROCS_ShapeTanimoto>  (164) 
0.285

>  <ROCS_ColorTanimoto>  (164) 
0.135

>  <distance>  (164) 
5.642361

$$$$
EN300_373415
     RDKit          3D

 39 41  0  0  0  0  0  0  0  0999 V2000
   11.5270   14.7080   19.0440 C   0  0  0  0  0  0  0  0  0  0  0  0
   11.3230   15.5560   20.3060 C   0  0  0  0  0  0  0  0  0  0  0  0
   10.6410   16.8580   19.9230 C   0  0  0  0  0  0  0  0  0  0  0  0
   12.6080   15.6290   21.1680 C   0  0  0  0  0  0  0  0  0  0  0  0
   10.3740   14.8940   21.1180 O   0  0  0  0  0  0  0  0  0  0  0  0
   10.6310   14.7500   22.4340 C   0  0  0  0  0  0  0  0  0  0  0  0
   11.1950   15.7970   23.2570 O   0  0  0  0  0  0  0  0  0  0  0  0
   10.2660   13.5010   22.9770 N   0  0  0  0  0  0  0  0  0  0  0  0
   10.6680   12.8440   24.1240 C   0  0  0  0  0  0  0  0  0  0  0  0
    9.4650   11.9860   24.0310 C   0  0  0  0  0  0  0  0  0  0  0  0
    9.7120   10.6780   23.5700 C   0  0  0  0  0  0  0  0  0  0  0  0
    8.6810    9.8360   23.9630 C   0  0  1  0  0  0  0  0  0  0  0  0
    9.1170    8.6010   24.3440 N   0  0  0  0  0  0  0  0  0  0  0  0
    7.9880   10.5080   24.9720 C   0  0  0  0  0  0  0  0  0  0  0  0
    7.0360   10.2790   25.8520 N   0  0  0  0  0  0  0  0  0  0  0  0
    6.9570   11.5170   26.4900 C   0  0  0  0  0  0  0  0  0  0  0  0
    7.8000   12.5160   26.0610 C   0  0  0  0  0  0  0  0  0  0  0  0
    8.4610   11.7780   25.0360 N   0  0  0  0  0  0  0  0  0  0  0  0
    8.8540   13.1120   23.2140 C   0  0  0  0  0  0  0  0  0  0  0  0
   12.1590   13.8390   19.2510 H   0  0  0  0  0  0  0  0  0  0  0  0
   10.5790   14.3570   18.6330 H   0  0  0  0  0  0  0  0  0  0  0  0
   12.0170   15.2940   18.2560 H   0  0  0  0  0  0  0  0  0  0  0  0
    9.5590   16.7030   19.8240 H   0  0  0  0  0  0  0  0  0  0  0  0
   10.7920   17.6330   20.6830 H   0  0  0  0  0  0  0  0  0  0  0  0
   10.9680   17.2380   18.9540 H   0  0  0  0  0  0  0  0  0  0  0  0
   12.8440   14.6560   21.5980 H   0  0  0  0  0  0  0  0  0  0  0  0
   12.4050   16.3000   21.9940 H   0  0  0  0  0  0  0  0  0  0  0  0
   13.4820   15.9850   20.6360 H   0  0  0  0  0  0  0  0  0  0  0  0
   11.6310   12.3240   24.0470 H   0  0  0  0  0  0  0  0  0  0  0  0
   10.6580   13.5310   24.9780 H   0  0  0  0  0  0  0  0  0  0  0  0
   10.0080   10.5630   22.5360 H   0  0  0  0  0  0  0  0  0  0  0  0
   10.6030   10.3250   24.1010 H   0  0  0  0  0  0  0  0  0  0  0  0
    8.0270    9.5780   23.1620 H   0  0  0  0  0  0  0  0  0  0  0  0
    9.8380    8.3070   23.6860 H   0  0  0  0  0  0  0  0  0  0  0  0
    9.5620    8.6440   25.2620 H   0  0  0  0  0  0  0  0  0  0  0  0
    6.2780   11.7700   27.3070 H   0  0  0  0  0  0  0  0  0  0  0  0
    7.9760   13.5450   26.3340 H   0  0  0  0  0  0  0  0  0  0  0  0
    8.2920   13.8660   23.7720 H   0  0  0  0  0  0  0  0  0  0  0  0
    8.2430   12.8660   22.3720 H   0  0  0  0  0  0  0  0  0  0  0  0
  1  2  1  0
  2  3  1  0
  2  4  1  0
  2  5  1  0
  5  6  1  0
  6  7  2  0
  6  8  1  0
  8  9  1  0
  9 10  1  0
 10 11  1  0
 11 12  1  0
 12 13  1  0
 12 14  1  0
 14 15  2  0
 15 16  1  0
 16 17  2  0
 17 18  1  0
 10 19  1  0
 19  8  1  0
 18 10  1  0
 18 14  1  0
  1 20  1  0
  1 21  1  0
  1 22  1  0
  3 23  1  0
  3 24  1  0
  3 25  1  0
  4 26  1  0
  4 27  1  0
  4 28  1  0
  9 29  1  0
  9 30  1  0
 11 31  1  0
 11 32  1  0
 12 33  1  6
 13 34  1  0
 13 35  1  0
 16 36  1  0
 17 37  1  0
 19 38  1  0
 19 39  1  0
A    1
 C1 
A    2
 C2 
A    3
 C3 
A    4
 C4 
A    5
 O1 
A    6
 C5 
A    7
 O2 
A    8
 N1 
A    9
 C6 
A   10
 C7 
A   11
 C8 
A   12
 C9 
A   13
 N2 
A   14
 C10
A   15
 N3 
A   16
 C11
A   17
 C12
A   18
 N4 
A   19
 C13
A   20
 H1 
A   21
 H2 
A   22
 H3 
A   23
 H4 
A   24
 H5 
A   25
 H6 
A   26
 H7 
A   27
 H8 
A   28
 H9 
A   29
 H10
A   30
 H11
A   31
 H12
A   32
 H13
A   33
 H14
A   34
 H15
A   35
 H16
A   36
 H17
A   37
 H18
A   38
 H19
A   39
 H20
M  END
>  <ref_pdb>  (165) 
x0451_0A

>  <ref_mols>  (165) 
x0451_0A,x0554_0A,x0556_0A,x0566_0A,x0310_0A,x0416_0A

>  <original SMILES>  (165) 
CC(C)(C)OC(=O)N1CC2(C[C@@H](N)c3nccn32)C1

>  <rationale>  (165) 
info info set:ROCS-BB-0RB;Warhead nanÅ to Cys110:SG; hbond:S105+S87; hydroph_interaction:Y89; 

>  <∆∆G>  (165) 
-7.727256

>  <comRMSD>  (165) 
0.759308

>  <ROCS_TanimotoCombo>  (165) 
0.499

>  <ROCS_ShapeTanimoto>  (165) 
0.335

>  <ROCS_ColorTanimoto>  (165) 
0.164

>  <distance>  (165) 
nan

$$$$
EN300_338901
     RDKit          3D

 40 42  0  0  0  0  0  0  0  0999 V2000
   10.4590   16.6200   20.2670 C   0  0  0  0  0  0  0  0  0  0  0  0
   11.2410   15.3130   20.4850 C   0  0  0  0  0  0  0  0  0  0  0  0
   12.5530   15.5000   21.1830 C   0  0  0  0  0  0  0  0  0  0  0  0
   11.5370   14.6320   19.1040 C   0  0  0  0  0  0  0  0  0  0  0  0
   10.4170   14.5710   21.4010 O   0  0  0  0  0  0  0  0  0  0  0  0
   10.8130   14.6330   22.7810 C   0  0  0  0  0  0  0  0  0  0  0  0
   10.9190   15.8720   23.4680 O   0  0  0  0  0  0  0  0  0  0  0  0
   11.1080   13.4010   23.3840 N   0  0  0  0  0  0  0  0  0  0  0  0
   10.2040   12.4530   23.0060 C   0  0  0  0  0  0  0  0  0  0  0  0
    9.9950   11.8950   24.3580 C   0  0  0  0  0  0  0  0  0  0  0  0
   10.3660   10.4440   24.1670 C   0  0  0  0  0  0  0  0  0  0  0  0
    9.2420    9.6250   24.7150 N   0  0  0  0  0  0  0  0  0  0  0  0
    8.2440   10.5240   25.1770 C   0  0  0  0  0  0  0  0  0  0  0  0
    7.0270   10.1980   25.7630 C   0  0  0  0  0  0  0  0  0  0  0  0
    6.1460   11.2040   26.1470 C   0  0  0  0  0  0  0  0  0  0  0  0
    6.4940   12.5360   25.9420 C   0  0  0  0  0  0  0  0  0  0  0  0
    5.6100   13.5680   26.3170 C   0  0  0  0  0  0  0  0  0  0  0  0
    4.8910   14.4260   26.6160 N   0  0  0  0  0  0  0  0  0  0  0  0
    7.7230   12.8630   25.3650 C   0  0  0  0  0  0  0  0  0  0  0  0
    8.6010   11.8480   24.9880 C   0  0  0  0  0  0  0  0  0  0  0  0
   11.1140   12.9930   24.7720 C   0  0  0  0  0  0  0  0  0  0  0  0
    9.3870   16.4480   20.4210 H   0  0  0  0  0  0  0  0  0  0  0  0
   10.7650   17.3830   20.9840 H   0  0  0  0  0  0  0  0  0  0  0  0
   10.6070   17.0150   19.2560 H   0  0  0  0  0  0  0  0  0  0  0  0
   12.6150   16.2310   21.9660 H   0  0  0  0  0  0  0  0  0  0  0  0
   12.8640   14.5570   21.6310 H   0  0  0  0  0  0  0  0  0  0  0  0
   13.3140   15.7390   20.4450 H   0  0  0  0  0  0  0  0  0  0  0  0
   12.2360   13.7940   19.2240 H   0  0  0  0  0  0  0  0  0  0  0  0
   12.0110   15.3340   18.4130 H   0  0  0  0  0  0  0  0  0  0  0  0
   10.6370   14.2300   18.6270 H   0  0  0  0  0  0  0  0  0  0  0  0
   10.6450   11.7150   22.3530 H   0  0  0  0  0  0  0  0  0  0  0  0
    9.3140   12.9530   22.6110 H   0  0  0  0  0  0  0  0  0  0  0  0
   10.4760   10.1410   23.1310 H   0  0  0  0  0  0  0  0  0  0  0  0
   11.2340   10.1280   24.7360 H   0  0  0  0  0  0  0  0  0  0  0  0
    8.8660    8.9390   24.0700 H   0  0  0  0  0  0  0  0  0  0  0  0
    6.7540    9.1740   25.9250 H   0  0  0  0  0  0  0  0  0  0  0  0
    5.1930   10.9430   26.6020 H   0  0  0  0  0  0  0  0  0  0  0  0
    7.9980   13.9000   25.2100 H   0  0  0  0  0  0  0  0  0  0  0  0
   10.7930   13.7750   25.4650 H   0  0  0  0  0  0  0  0  0  0  0  0
   12.0890   12.5940   25.0850 H   0  0  0  0  0  0  0  0  0  0  0  0
  1  2  1  0
  2  3  1  0
  2  4  1  0
  2  5  1  0
  5  6  1  0
  6  7  2  0
  6  8  1  0
  8  9  1  0
  9 10  1  0
 10 11  1  0
 11 12  1  0
 12 13  1  0
 13 14  2  0
 14 15  1  0
 15 16  2  0
 16 17  1  0
 17 18  3  0
 16 19  1  0
 19 20  2  0
 10 21  1  0
 21  8  1  0
 20 10  1  0
 20 13  1  0
  1 22  1  0
  1 23  1  0
  1 24  1  0
  3 25  1  0
  3 26  1  0
  3 27  1  0
  4 28  1  0
  4 29  1  0
  4 30  1  0
  9 31  1  0
  9 32  1  0
 11 33  1  0
 11 34  1  0
 12 35  1  0
 14 36  1  0
 15 37  1  0
 19 38  1  0
 21 39  1  0
 21 40  1  0
A    1
 C1 
A    2
 C2 
A    3
 C3 
A    4
 C4 
A    5
 O1 
A    6
 C5 
A    7
 O2 
A    8
 N1 
A    9
 C6 
A   10
 C7 
A   11
 C8 
A   12
 N2 
A   13
 C9 
A   14
 C10
A   15
 C11
A   16
 C12
A   17
 C13
A   18
 N3 
A   19
 C14
A   20
 C15
A   21
 C16
A   22
 H1 
A   23
 H2 
A   24
 H3 
A   25
 H4 
A   26
 H5 
A   27
 H6 
A   28
 H7 
A   29
 H8 
A   30
 H9 
A   31
 H10
A   32
 H11
A   33
 H12
A   34
 H13
A   35
 H14
A   36
 H15
A   37
 H16
A   38
 H17
A   39
 H18
A   40
 H19
M  END
>  <ref_pdb>  (166) 
x0451_0A

>  <ref_mols>  (166) 
x0451_0A,x0554_0A,x0556_0A,x0566_0A,x0310_0A,x0416_0A

>  <original SMILES>  (166) 
CC(C)(C)OC(=O)N1CC2(CNc3ccc(C#N)cc32)C1

>  <rationale>  (166) 
info info set:ROCS-BB-0RB;Warhead nanÅ to Cys110:SG; hbond:S87; hydroph_interaction:Y89; 

>  <∆∆G>  (166) 
-7.721564

>  <comRMSD>  (166) 
0.687092

>  <ROCS_TanimotoCombo>  (166) 
0.505

>  <ROCS_ShapeTanimoto>  (166) 
0.352

>  <ROCS_ColorTanimoto>  (166) 
0.154

>  <distance>  (166) 
nan

$$$$
EN300_319171
     RDKit          3D

 35 36  0  0  0  0  0  0  0  0999 V2000
   11.5740   14.5100   20.0580 C   0  0  0  0  0  0  0  0  0  0  0  0
   11.3980   14.6200   21.5530 C   0  0  0  0  0  0  0  0  0  0  0  0
   12.4860   14.4560   22.3950 C   0  0  0  0  0  0  0  0  0  0  0  0
   10.8030   15.9920   21.8480 C   0  0  0  0  0  0  0  0  0  0  0  0
   10.3920   13.7020   21.9930 O   0  0  0  0  0  0  0  0  0  0  0  0
   10.3190   13.4710   23.3260 C   0  0  0  0  0  0  0  0  0  0  0  0
   10.6430   14.2900   24.1770 O   0  0  0  0  0  0  0  0  0  0  0  0
    9.7880   12.1340   23.7080 N   0  0  0  0  0  0  0  0  0  0  0  0
   10.1600   10.9010   23.2770 C   0  0  0  0  0  0  0  0  0  0  0  0
    9.4330    9.9230   23.8760 C   0  0  0  0  0  0  0  0  0  0  0  0
    8.5490   10.5490   24.7410 C   0  0  0  0  0  0  0  0  0  0  0  0
    7.5030    9.9800   25.6830 C   0  0  0  0  0  0  0  0  0  0  0  0
    6.6730   10.9510   26.5060 C   0  0  0  0  0  0  0  0  0  0  0  0
    7.0110   12.2750   26.2800 C   0  0  0  0  0  0  0  0  0  0  0  0
    6.1320   13.1280   27.1580 C   0  0  0  0  0  0  0  0  0  0  0  0
    4.7800   12.5690   27.3050 C   0  0  0  0  0  0  0  0  0  0  0  0
    3.7060   12.1500   27.4400 N   0  0  0  0  0  0  0  0  0  0  0  0
    7.9960   12.7830   25.4030 C   0  0  0  0  0  0  0  0  0  0  0  0
    8.7580   11.9130   24.6390 C   0  0  0  0  0  0  0  0  0  0  0  0
   11.8080   15.4630   19.5830 H   0  0  0  0  0  0  0  0  0  0  0  0
   10.6550   14.1780   19.5660 H   0  0  0  0  0  0  0  0  0  0  0  0
   12.3700   13.8010   19.8200 H   0  0  0  0  0  0  0  0  0  0  0  0
   12.8400   13.4220   22.3630 H   0  0  0  0  0  0  0  0  0  0  0  0
   13.3040   15.1230   22.1180 H   0  0  0  0  0  0  0  0  0  0  0  0
   12.2180   14.6690   23.4290 H   0  0  0  0  0  0  0  0  0  0  0  0
   10.2510   15.9900   22.7940 H   0  0  0  0  0  0  0  0  0  0  0  0
   10.1100   16.3010   21.0560 H   0  0  0  0  0  0  0  0  0  0  0  0
   11.5920   16.7450   21.9160 H   0  0  0  0  0  0  0  0  0  0  0  0
   10.9520   10.7430   22.5390 H   0  0  0  0  0  0  0  0  0  0  0  0
    9.5120    8.8440   23.7250 H   0  0  0  0  0  0  0  0  0  0  0  0
    7.4190    8.9150   25.7130 H   0  0  0  0  0  0  0  0  0  0  0  0
    5.9090   10.5680   27.1910 H   0  0  0  0  0  0  0  0  0  0  0  0
    6.0460   14.1350   26.7350 H   0  0  0  0  0  0  0  0  0  0  0  0
    6.5720   13.2590   28.1490 H   0  0  0  0  0  0  0  0  0  0  0  0
    8.1530   13.8550   25.3310 H   0  0  0  0  0  0  0  0  0  0  0  0
  1  2  1  0
  2  3  1  0
  2  4  1  0
  2  5  1  0
  5  6  1  0
  6  7  2  0
  6  8  1  0
  8  9  1  0
  9 10  2  0
 10 11  1  0
 11 12  2  0
 12 13  1  0
 13 14  2  0
 14 15  1  0
 15 16  1  0
 16 17  3  0
 14 18  1  0
 18 19  2  0
 19  8  1  0
 19 11  1  0
  1 20  1  0
  1 21  1  0
  1 22  1  0
  3 23  1  0
  3 24  1  0
  3 25  1  0
  4 26  1  0
  4 27  1  0
  4 28  1  0
  9 29  1  0
 10 30  1  0
 12 31  1  0
 13 32  1  0
 15 33  1  0
 15 34  1  0
 18 35  1  0
A    1
 C1 
A    2
 C2 
A    3
 C3 
A    4
 C4 
A    5
 O1 
A    6
 C5 
A    7
 O2 
A    8
 N1 
A    9
 C6 
A   10
 C7 
A   11
 C8 
A   12
 C9 
A   13
 C10
A   14
 C11
A   15
 C12
A   16
 C13
A   17
 N2 
A   18
 C14
A   19
 C15
A   20
 H1 
A   21
 H2 
A   22
 H3 
A   23
 H4 
A   24
 H5 
A   25
 H6 
A   26
 H7 
A   27
 H8 
A   28
 H9 
A   29
 H10
A   30
 H11
A   31
 H12
A   32
 H13
A   33
 H14
A   34
 H15
A   35
 H16
M  END
>  <ref_pdb>  (167) 
x0451_0A

>  <ref_mols>  (167) 
x0451_0A,x0554_0A,x0556_0A,x0566_0A,x0310_0A,x0416_0A

>  <original SMILES>  (167) 
CC(C)(C)OC(=O)n1ccc2ccc(CC#N)cc21

>  <rationale>  (167) 
info info set:ROCS-BB-1RB;Warhead nanÅ to Cys110:SG; hydroph_interaction:Y89; 

>  <∆∆G>  (167) 
-7.721531

>  <comRMSD>  (167) 
0.457463

>  <ROCS_TanimotoCombo>  (167) 
0.508

>  <ROCS_ShapeTanimoto>  (167) 
0.341

>  <ROCS_ColorTanimoto>  (167) 
0.166

>  <distance>  (167) 
nan

$$$$
Z963963616
     RDKit          3D

 40 41  0  0  0  0  0  0  0  0999 V2000
   10.5640   14.8600   18.2230 C   0  0  0  0  0  0  0  0  0  0  0  0
   11.2050   14.8990   19.5750 C   0  0  0  0  0  0  0  0  0  0  0  0
   12.3770   15.5630   19.6820 C   0  0  0  0  0  0  0  0  0  0  0  0
   13.0450   15.6690   20.8890 C   0  0  0  0  0  0  0  0  0  0  0  0
   12.5320   15.0720   22.0080 C   0  0  0  0  0  0  0  0  0  0  0  0
   11.3590   14.3900   21.9360 C   0  0  0  0  0  0  0  0  0  0  0  0
   10.8270   13.7440   23.1460 C   0  0  0  0  0  0  0  0  0  0  0  0
   10.5250   14.4170   24.1250 O   0  0  0  0  0  0  0  0  0  0  0  0
   10.7280   12.3750   23.0820 N   0  0  0  0  0  0  0  0  0  0  0  0
    9.8980   11.6920   24.0610 C   0  0  1  0  0  0  0  0  0  0  0  0
    8.6450   12.5220   24.3090 C   0  0  0  0  0  0  0  0  0  0  0  0
    7.7470   11.8080   25.3030 C   0  0  0  0  0  0  0  0  0  0  0  0
    7.3580   10.4740   24.8610 N   0  0  0  0  0  0  0  0  0  0  0  0
    6.4770    9.9630   25.8850 C   0  0  0  0  0  0  0  0  0  0  0  0
    8.5360    9.6390   24.6470 C   0  0  0  0  0  0  0  0  0  0  0  0
    9.4700   10.2770   23.6230 C   0  0  2  0  0  0  0  0  0  0  0  0
   10.6470    9.3790   23.2460 C   0  0  0  0  0  0  0  0  0  0  0  0
   10.6810   14.3070   20.7210 C   0  0  0  0  0  0  0  0  0  0  0  0
   10.3440   13.8410   17.9160 H   0  0  0  0  0  0  0  0  0  0  0  0
   11.2330   15.2810   17.4640 H   0  0  0  0  0  0  0  0  0  0  0  0
    9.6340   15.4340   18.2310 H   0  0  0  0  0  0  0  0  0  0  0  0
   12.7690   16.0060   18.7900 H   0  0  0  0  0  0  0  0  0  0  0  0
   13.9730   16.2130   20.9500 H   0  0  0  0  0  0  0  0  0  0  0  0
   13.0610   15.1380   22.9330 H   0  0  0  0  0  0  0  0  0  0  0  0
   10.8900   11.9420   22.1710 H   0  0  0  0  0  0  0  0  0  0  0  0
   10.4760   11.6460   24.9930 H   0  0  0  0  0  0  0  0  0  0  0  0
    8.1080   12.6710   23.3610 H   0  0  0  0  0  0  0  0  0  0  0  0
    8.8820   13.5210   24.6910 H   0  0  0  0  0  0  0  0  0  0  0  0
    8.2720   11.7070   26.2610 H   0  0  0  0  0  0  0  0  0  0  0  0
    6.8700   12.4440   25.4780 H   0  0  0  0  0  0  0  0  0  0  0  0
    6.9590    9.2060   26.4760 H   0  0  0  0  0  0  0  0  0  0  0  0
    6.1680   10.7710   26.5550 H   0  0  0  0  0  0  0  0  0  0  0  0
    5.5630    9.5570   25.4600 H   0  0  0  0  0  0  0  0  0  0  0  0
    8.2670    8.6190   24.3470 H   0  0  0  0  0  0  0  0  0  0  0  0
    9.0910    9.5590   25.5670 H   0  0  0  0  0  0  0  0  0  0  0  0
    8.8840   10.3720   22.7510 H   0  0  0  0  0  0  0  0  0  0  0  0
   10.3970    8.3250   23.4080 H   0  0  0  0  0  0  0  0  0  0  0  0
   11.5210    9.6110   23.8610 H   0  0  0  0  0  0  0  0  0  0  0  0
   10.9200    9.5020   22.1930 H   0  0  0  0  0  0  0  0  0  0  0  0
    9.7520   13.7770   20.6800 H   0  0  0  0  0  0  0  0  0  0  0  0
  1  2  1  0
  2  3  2  0
  3  4  1  0
  4  5  2  0
  5  6  1  0
  6  7  1  0
  7  8  2  0
  7  9  1  0
  9 10  1  0
 10 11  1  0
 11 12  1  0
 12 13  1  0
 13 14  1  0
 13 15  1  0
 15 16  1  0
 16 17  1  0
  6 18  2  0
 18  2  1  0
 16 10  1  0
  1 19  1  0
  1 20  1  0
  1 21  1  0
  3 22  1  0
  4 23  1  0
  5 24  1  0
  9 25  1  0
 10 26  1  1
 11 27  1  0
 11 28  1  0
 12 29  1  0
 12 30  1  0
 14 31  1  0
 14 32  1  0
 14 33  1  0
 15 34  1  0
 15 35  1  0
 16 36  1  6
 17 37  1  0
 17 38  1  0
 17 39  1  0
 18 40  1  0
A    1
 C1 
A    2
 C2 
A    3
 C3 
A    4
 C4 
A    5
 C5 
A    6
 C6 
A    7
 C7 
A    8
 O1 
A    9
 N1 
A   10
 C8 
A   11
 C9 
A   12
 C10
A   13
 N2 
A   14
 C11
A   15
 C12
A   16
 C13
A   17
 C14
A   18
 C15
A   19
 H1 
A   20
 H2 
A   21
 H3 
A   22
 H4 
A   23
 H5 
A   24
 H6 
A   25
 H7 
A   26
 H8 
A   27
 H9 
A   28
 H10
A   29
 H11
A   30
 H12
A   31
 H13
A   32
 H14
A   33
 H15
A   34
 H16
A   35
 H17
A   36
 H18
A   37
 H19
A   38
 H20
A   39
 H21
A   40
 H22
M  END
>  <ref_pdb>  (168) 
x0451_0A

>  <ref_mols>  (168) 
x0451_0A,x0554_0A,x0556_0A,x0566_0A,x0310_0A,x0416_0A

>  <original SMILES>  (168) 
Cc1cccc(C(=O)N[C@H]2CCN(C)C[C@@H]2C)c1

>  <rationale>  (168) 
info info set:ROCS-shape_Q1;Warhead nanÅ to Cys110:SG; hbond:S125; hydroph_interaction:Y89+Y90+A110+V124; pistack:H21; 

>  <∆∆G>  (168) 
-7.714186

>  <comRMSD>  (168) 
0.564872

>  <ROCS_TanimotoCombo>  (168) 
0.441

>  <ROCS_ShapeTanimoto>  (168) 
0.31

>  <ROCS_ColorTanimoto>  (168) 
0.131

>  <distance>  (168) 
nan

$$$$
Z49511436
     RDKit          3D

 56 59  0  0  0  0  0  0  0  0999 V2000
   17.1760   12.3750   27.1830 C   0  0  0  0  0  0  0  0  0  0  0  0
   15.8510   12.0470   27.5880 O   0  0  0  0  0  0  0  0  0  0  0  0
   14.9850   13.0710   27.1650 C   0  0  0  0  0  0  0  0  0  0  0  0
   13.5060   12.7120   27.1050 C   0  0  0  0  0  0  0  0  0  0  0  0
   13.0140   12.5800   25.8310 N   0  0  0  0  0  0  0  0  0  0  0  0
   11.8930   13.4200   25.4110 C   0  0  0  0  0  0  0  0  0  0  0  0
   11.0450   14.0580   26.3420 N   0  0  0  0  0  0  0  0  0  0  0  0
   11.7470   13.5160   24.0270 C   0  0  0  0  0  0  0  0  0  0  0  0
   10.7220   14.2340   23.3770 N   0  0  0  0  0  0  0  0  0  0  0  0
   10.9440   15.5060   22.6720 C   0  0  0  0  0  0  0  0  0  0  0  0
   11.2220   15.3880   21.3040 C   0  0  0  0  0  0  0  0  0  0  0  0
   12.6750   15.2540   20.9870 C   0  0  0  0  0  0  0  0  0  0  0  0
   12.9270   15.1250   19.5110 C   0  0  0  0  0  0  0  0  0  0  0  0
   11.9220   15.1390   18.5710 C   0  0  0  0  0  0  0  0  0  0  0  0
   10.5980   15.2720   18.9490 C   0  0  0  0  0  0  0  0  0  0  0  0
   10.2510   15.3940   20.2910 C   0  0  0  0  0  0  0  0  0  0  0  0
    9.4900   13.6620   23.1140 C   0  0  0  0  0  0  0  0  0  0  0  0
    8.5450   14.2720   22.3190 O   0  0  0  0  0  0  0  0  0  0  0  0
    9.1330   12.3370   23.6800 C   0  0  0  0  0  0  0  0  0  0  0  0
    9.9150   11.1490   23.2180 C   0  0  0  0  0  0  0  0  0  0  0  0
    9.5710    9.9440   23.6960 C   0  0  0  0  0  0  0  0  0  0  0  0
   10.3790    8.5680   23.1900 Cl  0  0  0  0  0  0  0  0  0  0  0  0
    8.5890    9.7360   24.5720 N   0  0  0  0  0  0  0  0  0  0  0  0
    7.8940   10.7870   25.0210 C   0  0  0  0  0  0  0  0  0  0  0  0
    6.9010   10.5310   25.9410 C   0  0  0  0  0  0  0  0  0  0  0  0
    6.1110   11.5410   26.4750 C   0  0  0  0  0  0  0  0  0  0  0  0
    6.3110   12.8580   26.0790 C   0  0  0  0  0  0  0  0  0  0  0  0
    7.3020   13.1510   25.1530 C   0  0  0  0  0  0  0  0  0  0  0  0
    8.1100   12.1300   24.6110 C   0  0  0  0  0  0  0  0  0  0  0  0
   12.6990   12.8240   23.1360 C   0  0  0  0  0  0  0  0  0  0  0  0
   12.5620   12.8600   21.9440 O   0  0  0  0  0  0  0  0  0  0  0  0
   13.7510   12.1930   23.6770 N   0  0  0  0  0  0  0  0  0  0  0  0
   13.8430   11.8790   24.9710 C   0  0  0  0  0  0  0  0  0  0  0  0
   14.6320   11.0120   25.3390 O   0  0  0  0  0  0  0  0  0  0  0  0
   17.1380   12.8710   26.2110 H   0  0  0  0  0  0  0  0  0  0  0  0
   17.6590   13.0420   27.9060 H   0  0  0  0  0  0  0  0  0  0  0  0
   17.7970   11.4790   27.0700 H   0  0  0  0  0  0  0  0  0  0  0  0
   15.1240   13.9070   27.8620 H   0  0  0  0  0  0  0  0  0  0  0  0
   15.3280   13.3900   26.1810 H   0  0  0  0  0  0  0  0  0  0  0  0
   12.9390   13.5000   27.6210 H   0  0  0  0  0  0  0  0  0  0  0  0
   13.3220   11.8220   27.6970 H   0  0  0  0  0  0  0  0  0  0  0  0
   11.5480   14.1470   27.2260 H   0  0  0  0  0  0  0  0  0  0  0  0
   10.8810   15.0260   26.0520 H   0  0  0  0  0  0  0  0  0  0  0  0
   10.0100   16.0710   22.7630 H   0  0  0  0  0  0  0  0  0  0  0  0
   11.7060   16.0810   23.1660 H   0  0  0  0  0  0  0  0  0  0  0  0
   13.4070   15.2570   21.7950 H   0  0  0  0  0  0  0  0  0  0  0  0
   13.9180   15.0200   19.1450 H   0  0  0  0  0  0  0  0  0  0  0  0
   12.1620   15.0450   17.5210 H   0  0  0  0  0  0  0  0  0  0  0  0
    9.8120   15.2810   18.1890 H   0  0  0  0  0  0  0  0  0  0  0  0
    9.1970   15.4960   20.5480 H   0  0  0  0  0  0  0  0  0  0  0  0
   10.7100   11.3600   22.5030 H   0  0  0  0  0  0  0  0  0  0  0  0
    6.7300    9.5050   26.2600 H   0  0  0  0  0  0  0  0  0  0  0  0
    5.3390   11.2970   27.1990 H   0  0  0  0  0  0  0  0  0  0  0  0
    5.6960   13.6540   26.4910 H   0  0  0  0  0  0  0  0  0  0  0  0
    7.4400   14.1910   24.8580 H   0  0  0  0  0  0  0  0  0  0  0  0
   14.6210   12.4840   23.2560 H   0  0  0  0  0  0  0  0  0  0  0  0
  1  2  1  0
  2  3  1  0
  3  4  1  0
  4  5  1  0
  5  6  1  0
  6  7  1  0
  6  8  2  0
  8  9  1  0
  9 10  1  0
 10 11  1  0
 11 12  2  0
 12 13  1  0
 13 14  2  0
 14 15  1  0
 15 16  2  0
  9 17  1  0
 17 18  2  0
 17 19  1  0
 19 20  2  0
 20 21  1  0
 21 22  1  0
 21 23  2  0
 23 24  1  0
 24 25  2  0
 25 26  1  0
 26 27  2  0
 27 28  1  0
 28 29  2  0
  8 30  1  0
 30 31  2  0
 30 32  1  0
 32 33  1  0
 33 34  2  0
 33  5  1  0
 16 11  1  0
 29 19  1  0
 29 24  1  0
  1 35  1  0
  1 36  1  0
  1 37  1  0
  3 38  1  0
  3 39  1  0
  4 40  1  0
  4 41  1  0
  7 42  1  0
  7 43  1  0
 10 44  1  0
 10 45  1  0
 12 46  1  0
 13 47  1  0
 14 48  1  0
 15 49  1  0
 16 50  1  0
 20 51  1  0
 25 52  1  0
 26 53  1  0
 27 54  1  0
 28 55  1  0
 32 56  1  0
A    1
 C1 
A    2
 O1 
A    3
 C2 
A    4
 C3 
A    5
 N1 
A    6
 C4 
A    7
 N2 
A    8
 C5 
A    9
 N3 
A   10
 C6 
A   11
 C7 
A   12
 C8 
A   13
 C9 
A   14
 C10
A   15
 C11
A   16
 C12
A   17
 C13
A   18
 O2 
A   19
 C14
A   20
 C15
A   21
 C16
A   22
CL1 
A   23
 N4 
A   24
 C17
A   25
 C18
A   26
 C19
A   27
 C20
A   28
 C21
A   29
 C22
A   30
 C23
A   31
 O3 
A   32
 N5 
A   33
 C24
A   34
 O4 
A   35
 H1 
A   36
 H2 
A   37
 H3 
A   38
 H4 
A   39
 H5 
A   40
 H6 
A   41
 H7 
A   42
 H8 
A   43
 H9 
A   44
 H10
A   45
 H11
A   46
 H12
A   47
 H13
A   48
 H14
A   49
 H15
A   50
 H16
A   51
 H17
A   52
 H18
A   53
 H19
A   54
 H20
A   55
 H21
A   56
 H22
M  END
>  <ref_pdb>  (169) 
x0451_0A

>  <ref_mols>  (169) 
x0451_0A,x0554_0A,x0556_0A,x0566_0A,x0310_0A,x0416_0A

>  <original SMILES>  (169) 
COCCn1c(N)c(N(Cc2ccccc2)C(=O)c2cc(Cl)nc3ccccc23)c(=O)[nH]c1=O

>  <rationale>  (169) 
info info set:ROCS-cov2;Warhead 4.0628964015834805Å to Cys110:SG; hbond:H21+G108+E88; hydroph_interaction:Y90+D39; pistack:Y89; 

>  <∆∆G>  (169) 
-7.708294

>  <comRMSD>  (169) 
0.710506

>  <ROCS_TanimotoCombo>  (169) 
0.547

>  <ROCS_ShapeTanimoto>  (169) 
0.416

>  <ROCS_ColorTanimoto>  (169) 
0.131

>  <distance>  (169) 
4.062896

$$$$
EN300_28301539
     RDKit          3D

 39 40  0  0  0  0  0  0  0  0999 V2000
    5.8200   12.3850   27.0380 C   0  0  0  0  0  0  0  0  0  0  0  0
    6.8950   11.8450   26.0750 C   0  0  0  0  0  0  0  0  0  0  0  0
    7.0380   10.5870   25.6940 N   0  0  0  0  0  0  0  0  0  0  0  0
    8.1480   10.7260   24.8490 N   0  0  0  0  0  0  0  0  0  0  0  0
    8.6970   12.0440   24.6960 C   0  0  0  0  0  0  0  0  0  0  0  0
    7.9020   12.8330   25.4920 C   0  0  0  0  0  0  0  0  0  0  0  0
    7.9640   14.8680   25.8790 I   0  0  0  0  0  0  0  0  0  0  0  0
    9.8500   12.1770   23.8120 N   0  0  0  0  0  0  0  0  0  0  0  0
   10.3230   13.4450   23.4970 C   0  0  0  0  0  0  0  0  0  0  0  0
   10.6780   14.2960   24.3010 O   0  0  0  0  0  0  0  0  0  0  0  0
   10.3470   13.6650   22.0890 O   0  0  0  0  0  0  0  0  0  0  0  0
   11.2280   14.7420   21.7390 C   0  0  0  0  0  0  0  0  0  0  0  0
   12.0000   14.7340   20.3800 C   0  0  0  0  0  0  0  0  0  0  0  0
   10.5850   16.0870   21.9510 C   0  0  0  0  0  0  0  0  0  0  0  0
   12.5450   14.5880   22.5080 C   0  0  0  0  0  0  0  0  0  0  0  0
   10.6550   11.0190   23.4270 C   0  0  0  0  0  0  0  0  0  0  0  0
   10.1750    9.6520   23.8860 C   0  0  2  0  0  0  0  0  0  0  0  0
   10.2940    8.7420   22.8520 C   0  0  0  0  0  0  0  0  0  0  0  0
    8.6900    9.5880   24.1810 C   0  0  0  0  0  0  0  0  0  0  0  0
    6.1830   12.9830   27.8800 H   0  0  0  0  0  0  0  0  0  0  0  0
    5.0110   12.9640   26.5900 H   0  0  0  0  0  0  0  0  0  0  0  0
    5.3530   11.5000   27.4840 H   0  0  0  0  0  0  0  0  0  0  0  0
   11.3630   15.0980   19.5660 H   0  0  0  0  0  0  0  0  0  0  0  0
   12.3570   13.7370   20.1120 H   0  0  0  0  0  0  0  0  0  0  0  0
   12.8630   15.4110   20.4200 H   0  0  0  0  0  0  0  0  0  0  0  0
   11.2080   16.8870   21.5620 H   0  0  0  0  0  0  0  0  0  0  0  0
   10.4320   16.2610   23.0060 H   0  0  0  0  0  0  0  0  0  0  0  0
    9.6280   16.1520   21.4390 H   0  0  0  0  0  0  0  0  0  0  0  0
   12.9060   13.5660   22.4040 H   0  0  0  0  0  0  0  0  0  0  0  0
   12.4060   14.7820   23.5620 H   0  0  0  0  0  0  0  0  0  0  0  0
   13.3180   15.2570   22.1410 H   0  0  0  0  0  0  0  0  0  0  0  0
   11.6500   11.3080   23.7530 H   0  0  0  0  0  0  0  0  0  0  0  0
   10.7290   11.0730   22.3730 H   0  0  0  0  0  0  0  0  0  0  0  0
   10.6240    9.3340   24.8210 H   0  0  0  0  0  0  0  0  0  0  0  0
   10.7570    9.2210   21.9870 H   0  0  0  0  0  0  0  0  0  0  0  0
    9.2970    8.4210   22.5380 H   0  0  0  0  0  0  0  0  0  0  0  0
   10.8470    7.8410   23.0450 H   0  0  0  0  0  0  0  0  0  0  0  0
    8.1230    9.4160   23.2800 H   0  0  0  0  0  0  0  0  0  0  0  0
    8.5230    8.7510   24.8620 H   0  0  0  0  0  0  0  0  0  0  0  0
  1  2  1  0
  2  3  2  0
  3  4  1  0
  4  5  1  0
  5  6  2  0
  6  7  1  0
  5  8  1  0
  8  9  1  0
  9 10  2  0
  9 11  1  0
 11 12  1  0
 12 13  1  0
 12 14  1  0
 12 15  1  0
  8 16  1  0
 16 17  1  0
 17 18  1  0
 17 19  1  0
  6  2  1  0
 19  4  1  0
  1 20  1  0
  1 21  1  0
  1 22  1  0
 13 23  1  0
 13 24  1  0
 13 25  1  0
 14 26  1  0
 14 27  1  0
 14 28  1  0
 15 29  1  0
 15 30  1  0
 15 31  1  0
 16 32  1  0
 16 33  1  0
 17 34  1  1
 18 35  1  0
 18 36  1  0
 18 37  1  0
 19 38  1  0
 19 39  1  0
A    1
 C1 
A    2
 C2 
A    3
 N1 
A    4
 N2 
A    5
 C3 
A    6
 C4 
A    7
 I1 
A    8
 N3 
A    9
 C5 
A   10
 O1 
A   11
 O2 
A   12
 C6 
A   13
 C7 
A   14
 C8 
A   15
 C9 
A   16
 C10
A   17
 C11
A   18
 C12
A   19
 C13
A   20
 H1 
A   21
 H2 
A   22
 H3 
A   23
 H4 
A   24
 H5 
A   25
 H6 
A   26
 H7 
A   27
 H8 
A   28
 H9 
A   29
 H10
A   30
 H11
A   31
 H12
A   32
 H13
A   33
 H14
A   34
 H15
A   35
 H16
A   36
 H17
A   37
 H18
A   38
 H19
A   39
 H20
M  END
>  <ref_pdb>  (170) 
x0451_0A

>  <ref_mols>  (170) 
x0451_0A,x0554_0A,x0556_0A,x0566_0A,x0310_0A,x0416_0A

>  <original SMILES>  (170) 
Cc1nn2c(c1I)N(C(=O)OC(C)(C)C)C[C@H](C)C2

>  <rationale>  (170) 
info info set:ROCS-BB-0RB;Warhead nanÅ to Cys110:SG; hydroph_interaction:Y89+V124+D109; 

>  <∆∆G>  (170) 
-7.707017

>  <comRMSD>  (170) 
0.511343

>  <ROCS_TanimotoCombo>  (170) 
0.504

>  <ROCS_ShapeTanimoto>  (170) 
0.35

>  <ROCS_ColorTanimoto>  (170) 
0.154

>  <distance>  (170) 
nan

$$$$
EN300_1129091
     RDKit          3D

 52 54  0  0  0  0  0  0  0  0999 V2000
    6.6430    9.5170   26.1530 C   0  0  0  0  0  0  0  0  0  0  0  0
    6.9870   10.7710   25.5680 C   0  0  0  0  0  0  0  0  0  0  0  0
    6.0240   11.6590   26.2200 C   0  0  0  0  0  0  0  0  0  0  0  0
    6.0110   12.9600   25.9430 C   0  0  0  0  0  0  0  0  0  0  0  0
    4.9820   13.7510   26.6460 C   0  0  0  0  0  0  0  0  0  0  0  0
    4.0570   13.2670   27.3010 O   0  0  0  0  0  0  0  0  0  0  0  0
    5.1380   15.0680   26.5070 O   0  0  0  0  0  0  0  0  0  0  0  0
    6.9660   13.4360   25.0210 C   0  0  0  0  0  0  0  0  0  0  0  0
    7.9790   12.4700   24.3450 C   0  0  0  0  0  0  0  0  0  0  0  0
    7.9570   11.1210   24.6310 C   0  0  0  0  0  0  0  0  0  0  0  0
    8.8660   10.2680   23.9740 C   0  0  2  0  0  0  0  0  0  0  0  0
    9.1710    9.0420   24.6590 N   0  0  0  0  0  0  0  0  0  0  0  0
   10.0690   10.7990   23.5310 C   0  0  0  0  0  0  0  0  0  0  0  0
   10.1990   12.3260   23.6070 C   0  0  1  0  0  0  0  0  0  0  0  0
   10.7770   12.8370   24.9430 C   0  0  0  0  0  0  0  0  0  0  0  0
   11.9280   13.7800   24.5980 C   0  0  0  0  0  0  0  0  0  0  0  0
   11.7940   14.0350   23.1960 N   0  0  0  0  0  0  0  0  0  0  0  0
   11.7430   15.2640   22.6140 C   0  0  0  0  0  0  0  0  0  0  0  0
   11.3390   16.2130   23.2330 O   0  0  0  0  0  0  0  0  0  0  0  0
   12.1620   15.3190   21.3280 O   0  0  0  0  0  0  0  0  0  0  0  0
   11.2200   15.6510   20.2800 C   0  0  0  0  0  0  0  0  0  0  0  0
   10.0740   14.7000   20.2990 C   0  0  0  0  0  0  0  0  0  0  0  0
   10.5970   17.0320   20.4050 C   0  0  0  0  0  0  0  0  0  0  0  0
   11.9630   15.4580   18.9450 C   0  0  0  0  0  0  0  0  0  0  0  0
   11.2070   12.8970   22.5960 C   0  0  0  0  0  0  0  0  0  0  0  0
    8.8950   12.9630   23.4650 O   0  0  0  0  0  0  0  0  0  0  0  0
    5.6770    9.2080   25.7710 H   0  0  0  0  0  0  0  0  0  0  0  0
    7.4350    8.8270   25.9250 H   0  0  0  0  0  0  0  0  0  0  0  0
    6.5400    9.6410   27.2190 H   0  0  0  0  0  0  0  0  0  0  0  0
    5.3320   11.1890   26.9270 H   0  0  0  0  0  0  0  0  0  0  0  0
    5.2220   15.1890   25.5380 H   0  0  0  0  0  0  0  0  0  0  0  0
    7.0700   14.4830   24.7110 H   0  0  0  0  0  0  0  0  0  0  0  0
    8.3550    9.9190   23.0940 H   0  0  0  0  0  0  0  0  0  0  0  0
    8.3370    8.4480   24.6390 H   0  0  0  0  0  0  0  0  0  0  0  0
    9.3520    9.2430   25.6310 H   0  0  0  0  0  0  0  0  0  0  0  0
   10.1730   10.5340   22.4780 H   0  0  0  0  0  0  0  0  0  0  0  0
   10.9550   10.3800   24.0070 H   0  0  0  0  0  0  0  0  0  0  0  0
   10.0320   13.3550   25.5540 H   0  0  0  0  0  0  0  0  0  0  0  0
   11.1560   11.9920   25.5250 H   0  0  0  0  0  0  0  0  0  0  0  0
   12.9130   13.3600   24.8290 H   0  0  0  0  0  0  0  0  0  0  0  0
   11.8040   14.7300   25.1330 H   0  0  0  0  0  0  0  0  0  0  0  0
    9.6600   14.5900   21.3070 H   0  0  0  0  0  0  0  0  0  0  0  0
    9.2540   15.0410   19.6570 H   0  0  0  0  0  0  0  0  0  0  0  0
   10.4020   13.7230   19.9470 H   0  0  0  0  0  0  0  0  0  0  0  0
   10.6340   17.5860   19.4650 H   0  0  0  0  0  0  0  0  0  0  0  0
    9.5400   16.9560   20.6840 H   0  0  0  0  0  0  0  0  0  0  0  0
   11.0900   17.6180   21.1690 H   0  0  0  0  0  0  0  0  0  0  0  0
   11.7840   16.2930   18.2610 H   0  0  0  0  0  0  0  0  0  0  0  0
   13.0410   15.3500   19.0950 H   0  0  0  0  0  0  0  0  0  0  0  0
   11.6060   14.5600   18.4320 H   0  0  0  0  0  0  0  0  0  0  0  0
   12.0190   12.2060   22.3660 H   0  0  0  0  0  0  0  0  0  0  0  0
   10.7320   13.2500   21.6820 H   0  0  0  0  0  0  0  0  0  0  0  0
  1  2  1  0
  2  3  2  0
  3  4  1  0
  4  5  1  0
  5  6  2  0
  5  7  1  0
  4  8  2  0
  8  9  1  0
  9 10  2  0
 10 11  1  0
 11 12  1  0
 11 13  1  0
 13 14  1  0
 14 15  1  0
 15 16  1  0
 16 17  1  0
 17 18  1  0
 18 19  2  0
 18 20  1  0
 20 21  1  0
 21 22  1  0
 21 23  1  0
 21 24  1  0
 17 25  1  0
 14 26  1  6
 10  2  1  0
 25 14  1  0
 26  9  1  0
  1 27  1  0
  1 28  1  0
  1 29  1  0
  3 30  1  0
  7 31  1  0
  8 32  1  0
 11 33  1  6
 12 34  1  0
 12 35  1  0
 13 36  1  0
 13 37  1  0
 15 38  1  0
 15 39  1  0
 16 40  1  0
 16 41  1  0
 22 42  1  0
 22 43  1  0
 22 44  1  0
 23 45  1  0
 23 46  1  0
 23 47  1  0
 24 48  1  0
 24 49  1  0
 24 50  1  0
 25 51  1  0
 25 52  1  0
A    1
 C1 
A    2
 C2 
A    3
 C3 
A    4
 C4 
A    5
 C5 
A    6
 O1 
A    7
 O2 
A    8
 C6 
A    9
 C7 
A   10
 C8 
A   11
 C9 
A   12
 N1 
A   13
 C10
A   14
 C11
A   15
 C12
A   16
 C13
A   17
 N2 
A   18
 C14
A   19
 O3 
A   20
 O4 
A   21
 C15
A   22
 C16
A   23
 C17
A   24
 C18
A   25
 C19
A   26
 O5 
A   27
 H1 
A   28
 H2 
A   29
 H3 
A   30
 H4 
A   31
 H5 
A   32
 H6 
A   33
 H7 
A   34
 H8 
A   35
 H9 
A   36
 H10
A   37
 H11
A   38
 H12
A   39
 H13
A   40
 H14
A   41
 H15
A   42
 H16
A   43
 H17
A   44
 H18
A   45
 H19
A   46
 H20
A   47
 H21
A   48
 H22
A   49
 H23
A   50
 H24
A   51
 H25
A   52
 H26
M  END
>  <ref_pdb>  (171) 
x0451_0A

>  <ref_mols>  (171) 
x0451_0A,x0554_0A,x0556_0A,x0566_0A,x0310_0A,x0416_0A

>  <original SMILES>  (171) 
Cc1cc(C(=O)O)cc2c1[C@H](N)C[C@]1(CCN(C(=O)OC(C)(C)C)C1)O2

>  <rationale>  (171) 
info info set:ROCS-BB-1RB;Warhead nanÅ to Cys110:SG; hbond:S105+S87+G127; hydroph_interaction:Y90; 

>  <∆∆G>  (171) 
-7.695917

>  <comRMSD>  (171) 
0.846701

>  <ROCS_TanimotoCombo>  (171) 
0.545

>  <ROCS_ShapeTanimoto>  (171) 
0.394

>  <ROCS_ColorTanimoto>  (171) 
0.151

>  <distance>  (171) 
nan

$$$$
EN300_7354650
     RDKit          3D

 38 39  0  0  0  0  0  0  0  0999 V2000
   10.0560    8.5810   22.7940 C   0  0  0  0  0  0  0  0  0  0  0  0
    9.7110    9.8000   23.4600 C   0  0  2  0  0  0  0  0  0  0  0  0
   10.5620   10.8910   23.6800 C   0  0  0  0  0  0  0  0  0  0  0  0
    9.8840   12.0660   23.8940 N   0  0  0  0  0  0  0  0  0  0  0  0
   10.5030   13.3110   23.4790 C   0  0  0  0  0  0  0  0  0  0  0  0
   10.6730   14.3630   24.3430 O   0  0  0  0  0  0  0  0  0  0  0  0
   10.9030   13.3540   22.1630 O   0  0  0  0  0  0  0  0  0  0  0  0
   11.1330   14.6080   21.4530 C   0  0  0  0  0  0  0  0  0  0  0  0
   11.9860   15.2370   22.2250 C   0  0  0  0  0  0  0  0  0  0  0  0
   11.8050   14.4600   20.0810 C   0  0  0  0  0  0  0  0  0  0  0  0
    9.8440   15.4240   21.3550 C   0  0  0  0  0  0  0  0  0  0  0  0
    8.6640   11.9010   24.7180 C   0  0  0  0  0  0  0  0  0  0  0  0
    8.0590   13.3110   25.0160 C   0  0  0  0  0  0  0  0  0  0  0  0
    6.8530   12.8670   25.8580 C   0  0  0  0  0  0  0  0  0  0  0  0
    5.7490   14.2640   26.4850 Br  0  0  0  0  0  0  0  0  0  0  0  0
    6.3880   11.4670   26.2800 C   0  0  0  0  0  0  0  0  0  0  0  0
    7.1730   10.3160   25.8410 C   0  0  0  0  0  0  0  0  0  0  0  0
    8.2750   10.5670   25.0790 C   0  0  0  0  0  0  0  0  0  0  0  0
    9.0130    9.4840   24.6580 N   0  0  0  0  0  0  0  0  0  0  0  0
    9.4640    7.7360   23.1600 H   0  0  0  0  0  0  0  0  0  0  0  0
   11.1060    8.3640   22.9450 H   0  0  0  0  0  0  0  0  0  0  0  0
    9.8630    8.7050   21.7310 H   0  0  0  0  0  0  0  0  0  0  0  0
    8.9350   10.2220   22.8430 H   0  0  0  0  0  0  0  0  0  0  0  0
   11.1850   11.0590   22.7980 H   0  0  0  0  0  0  0  0  0  0  0  0
   11.2540   10.6930   24.5040 H   0  0  0  0  0  0  0  0  0  0  0  0
   12.5730   14.6330   22.9150 H   0  0  0  0  0  0  0  0  0  0  0  0
   12.7080   15.7770   21.6030 H   0  0  0  0  0  0  0  0  0  0  0  0
   11.4310   15.9740   22.8120 H   0  0  0  0  0  0  0  0  0  0  0  0
   11.0750   14.2870   19.2840 H   0  0  0  0  0  0  0  0  0  0  0  0
   12.4800   13.6080   20.0650 H   0  0  0  0  0  0  0  0  0  0  0  0
   12.3760   15.3590   19.8160 H   0  0  0  0  0  0  0  0  0  0  0  0
   10.0400   16.5000   21.4130 H   0  0  0  0  0  0  0  0  0  0  0  0
    9.1600   15.1640   22.1690 H   0  0  0  0  0  0  0  0  0  0  0  0
    9.3330   15.2390   20.4030 H   0  0  0  0  0  0  0  0  0  0  0  0
    8.3610   14.3120   24.7360 H   0  0  0  0  0  0  0  0  0  0  0  0
    5.4900   11.3330   26.8930 H   0  0  0  0  0  0  0  0  0  0  0  0
    6.8080    9.3440   26.1640 H   0  0  0  0  0  0  0  0  0  0  0  0
    9.5600    9.0480   25.3990 H   0  0  0  0  0  0  0  0  0  0  0  0
  1  2  1  0
  2  3  1  0
  3  4  1  0
  4  5  1  0
  5  6  2  0
  5  7  1  0
  7  8  1  0
  8  9  1  0
  8 10  1  0
  8 11  1  0
  4 12  1  0
 12 13  2  0
 13 14  1  0
 14 15  1  0
 14 16  2  0
 16 17  1  0
 17 18  2  0
 18 19  1  0
 19  2  1  0
 18 12  1  0
  1 20  1  0
  1 21  1  0
  1 22  1  0
  2 23  1  6
  3 24  1  0
  3 25  1  0
  9 26  1  0
  9 27  1  0
  9 28  1  0
 10 29  1  0
 10 30  1  0
 10 31  1  0
 11 32  1  0
 11 33  1  0
 11 34  1  0
 13 35  1  0
 16 36  1  0
 17 37  1  0
 19 38  1  0
A    1
 C1 
A    2
 C2 
A    3
 C3 
A    4
 N1 
A    5
 C4 
A    6
 O1 
A    7
 O2 
A    8
 C5 
A    9
 C6 
A   10
 C7 
A   11
 C8 
A   12
 C9 
A   13
 C10
A   14
 C11
A   15
BR1 
A   16
 C12
A   17
 C13
A   18
 C14
A   19
 N2 
A   20
 H1 
A   21
 H2 
A   22
 H3 
A   23
 H4 
A   24
 H5 
A   25
 H6 
A   26
 H7 
A   27
 H8 
A   28
 H9 
A   29
 H10
A   30
 H11
A   31
 H12
A   32
 H13
A   33
 H14
A   34
 H15
A   35
 H16
A   36
 H17
A   37
 H18
A   38
 H19
M  END
>  <ref_pdb>  (172) 
x0451_0A

>  <ref_mols>  (172) 
x0451_0A,x0554_0A,x0556_0A,x0566_0A,x0310_0A,x0416_0A

>  <original SMILES>  (172) 
C[C@@H]1CN(C(=O)OC(C)(C)C)c2cc(Br)ccc2N1

>  <rationale>  (172) 
info info set:ROCS-BB-0RB;Warhead nanÅ to Cys110:SG; hbond:E106; hydroph_interaction:Y89+V124+D109; 

>  <∆∆G>  (172) 
-7.692455

>  <comRMSD>  (172) 
0.453771

>  <ROCS_TanimotoCombo>  (172) 
0.505

>  <ROCS_ShapeTanimoto>  (172) 
0.359

>  <ROCS_ColorTanimoto>  (172) 
0.146

>  <distance>  (172) 
nan

$$$$
EN300_28283754
     RDKit          3D

 40 41  0  0  0  0  0  0  0  0999 V2000
   12.3270   13.9960   22.0220 C   0  0  0  0  0  0  0  0  0  0  0  0
   11.3270   14.8730   21.3410 C   0  0  0  0  0  0  0  0  0  0  0  0
   11.3500   14.7200   19.8150 C   0  0  0  0  0  0  0  0  0  0  0  0
   11.6620   16.2930   21.6760 C   0  0  0  0  0  0  0  0  0  0  0  0
   10.0960   14.6530   21.9810 O   0  0  0  0  0  0  0  0  0  0  0  0
   10.2180   14.0270   23.1710 C   0  0  0  0  0  0  0  0  0  0  0  0
   10.4330   14.6370   24.4520 O   0  0  0  0  0  0  0  0  0  0  0  0
   10.1420   12.6840   22.9560 N   0  0  0  0  0  0  0  0  0  0  0  0
   10.0380   11.6340   23.9790 C   0  0  2  0  0  0  0  0  0  0  0  0
   10.3910   10.3070   23.2940 C   0  0  0  0  0  0  0  0  0  0  0  0
    9.8440    9.1670   24.0550 C   0  0  0  0  0  0  0  0  0  0  0  0
    8.4260    9.1720   24.3710 C   0  0  0  0  0  0  0  0  0  0  0  0
    7.8960   10.4670   24.9450 C   0  0  0  0  0  0  0  0  0  0  0  0
    6.6610   10.5060   25.6590 C   0  0  0  0  0  0  0  0  0  0  0  0
    6.2420   11.7780   26.1520 C   0  0  0  0  0  0  0  0  0  0  0  0
    5.0400   11.7250   26.8230 C   0  0  0  0  0  0  0  0  0  0  0  0
    4.0210   11.7160   27.3870 N   0  0  0  0  0  0  0  0  0  0  0  0
    6.9560   12.9340   25.9750 C   0  0  0  0  0  0  0  0  0  0  0  0
    8.2420   12.8700   25.2330 C   0  0  0  0  0  0  0  0  0  0  0  0
    8.6980   11.6580   24.7320 C   0  0  0  0  0  0  0  0  0  0  0  0
   12.6770   13.2160   21.3540 H   0  0  0  0  0  0  0  0  0  0  0  0
   13.1750   14.6090   22.3210 H   0  0  0  0  0  0  0  0  0  0  0  0
   11.9190   13.5260   22.9150 H   0  0  0  0  0  0  0  0  0  0  0  0
   11.6830   15.5740   19.2270 H   0  0  0  0  0  0  0  0  0  0  0  0
   12.0090   13.8930   19.5300 H   0  0  0  0  0  0  0  0  0  0  0  0
   10.3460   14.4620   19.4600 H   0  0  0  0  0  0  0  0  0  0  0  0
   10.9990   17.0070   21.1770 H   0  0  0  0  0  0  0  0  0  0  0  0
   12.6980   16.4540   21.3930 H   0  0  0  0  0  0  0  0  0  0  0  0
   11.5600   16.4250   22.7550 H   0  0  0  0  0  0  0  0  0  0  0  0
   10.5620   12.3870   22.0610 H   0  0  0  0  0  0  0  0  0  0  0  0
   10.7910   11.8580   24.7420 H   0  0  0  0  0  0  0  0  0  0  0  0
    9.9680   10.2540   22.2970 H   0  0  0  0  0  0  0  0  0  0  0  0
   11.4670   10.2020   23.2310 H   0  0  0  0  0  0  0  0  0  0  0  0
   10.0620    8.2370   23.5210 H   0  0  0  0  0  0  0  0  0  0  0  0
   10.4180    9.1110   24.9720 H   0  0  0  0  0  0  0  0  0  0  0  0
    7.9030    8.8960   23.4620 H   0  0  0  0  0  0  0  0  0  0  0  0
    8.2250    8.3830   25.0950 H   0  0  0  0  0  0  0  0  0  0  0  0
    6.0660    9.6090   25.8150 H   0  0  0  0  0  0  0  0  0  0  0  0
    6.6700   13.9270   26.3360 H   0  0  0  0  0  0  0  0  0  0  0  0
    8.7550   13.8280   25.1340 H   0  0  0  0  0  0  0  0  0  0  0  0
  1  2  1  0
  2  3  1  0
  2  4  1  0
  2  5  1  0
  5  6  1  0
  6  7  2  0
  6  8  1  0
  8  9  1  0
  9 10  1  0
 10 11  1  0
 11 12  1  0
 12 13  1  0
 13 14  2  0
 14 15  1  0
 15 16  1  0
 16 17  3  0
 15 18  2  0
 18 19  1  0
 19 20  2  0
 20  9  1  0
 20 13  1  0
  1 21  1  0
  1 22  1  0
  1 23  1  0
  3 24  1  0
  3 25  1  0
  3 26  1  0
  4 27  1  0
  4 28  1  0
  4 29  1  0
  8 30  1  0
  9 31  1  1
 10 32  1  0
 10 33  1  0
 11 34  1  0
 11 35  1  0
 12 36  1  0
 12 37  1  0
 14 38  1  0
 18 39  1  0
 19 40  1  0
A    1
 C1 
A    2
 C2 
A    3
 C3 
A    4
 C4 
A    5
 O1 
A    6
 C5 
A    7
 O2 
A    8
 N1 
A    9
 C6 
A   10
 C7 
A   11
 C8 
A   12
 C9 
A   13
 C10
A   14
 C11
A   15
 C12
A   16
 C13
A   17
 N2 
A   18
 C14
A   19
 C15
A   20
 C16
A   21
 H1 
A   22
 H2 
A   23
 H3 
A   24
 H4 
A   25
 H5 
A   26
 H6 
A   27
 H7 
A   28
 H8 
A   29
 H9 
A   30
 H10
A   31
 H11
A   32
 H12
A   33
 H13
A   34
 H14
A   35
 H15
A   36
 H16
A   37
 H17
A   38
 H18
A   39
 H19
A   40
 H20
M  END
>  <ref_pdb>  (173) 
x0451_0A

>  <ref_mols>  (173) 
x0451_0A,x0554_0A,x0556_0A,x0566_0A,x0310_0A,x0416_0A

>  <original SMILES>  (173) 
CC(C)(C)OC(=O)N[C@@H]1CCCc2cc(C#N)ccc21

>  <rationale>  (173) 
info info set:ROCS-BB-1RB;Warhead nanÅ to Cys110:SG; hbond:S125; hydroph_interaction:Y89+Y90; 

>  <∆∆G>  (173) 
-7.688049

>  <comRMSD>  (173) 
0.439781

>  <ROCS_TanimotoCombo>  (173) 
0.509

>  <ROCS_ShapeTanimoto>  (173) 
0.353

>  <ROCS_ColorTanimoto>  (173) 
0.156

>  <distance>  (173) 
nan

$$$$
EN300_207273
     RDKit          3D

 32 33  0  0  0  0  0  0  0  0999 V2000
   10.0190   14.6100   20.8650 C   0  0  0  0  0  0  0  0  0  0  0  0
   11.3200   14.8280   21.6490 C   0  0  0  0  0  0  0  0  0  0  0  0
   11.0360   15.9160   22.6410 C   0  0  0  0  0  0  0  0  0  0  0  0
   12.3660   15.3350   20.6730 C   0  0  0  0  0  0  0  0  0  0  0  0
   11.7560   13.9160   22.3560 O   0  0  0  0  0  0  0  0  0  0  0  0
   11.0110   13.3890   23.3610 C   0  0  0  0  0  0  0  0  0  0  0  0
   10.6910   14.0660   24.6080 O   0  0  0  0  0  0  0  0  0  0  0  0
   10.6300   12.1340   22.9930 N   0  0  0  0  0  0  0  0  0  0  0  0
    9.6970   11.3460   23.6400 C   0  0  0  0  0  0  0  0  0  0  0  0
    9.5340    9.8160   23.5630 C   0  0  0  0  0  0  0  0  0  0  0  0
    8.5190    9.4350   24.3440 O   0  0  0  0  0  0  0  0  0  0  0  0
    7.9850   10.6260   24.9420 C   0  0  0  0  0  0  0  0  0  0  0  0
    6.7810   10.4230   25.9080 C   0  0  0  0  0  0  0  0  0  0  0  0
    6.3450   11.7860   26.4450 C   0  0  0  0  0  0  0  0  0  0  0  0
    7.0740   12.9090   25.9900 C   0  0  0  0  0  0  0  0  0  0  0  0
    8.1630   12.9590   25.1020 C   0  0  0  0  0  0  0  0  0  0  0  0
    8.6490   11.7730   24.5490 C   0  0  0  0  0  0  0  0  0  0  0  0
   10.2130   14.0970   19.9240 H   0  0  0  0  0  0  0  0  0  0  0  0
    9.5040   15.5540   20.6540 H   0  0  0  0  0  0  0  0  0  0  0  0
    9.3720   13.9970   21.5030 H   0  0  0  0  0  0  0  0  0  0  0  0
   10.0320   16.3360   22.6700 H   0  0  0  0  0  0  0  0  0  0  0  0
   11.2880   15.5870   23.6520 H   0  0  0  0  0  0  0  0  0  0  0  0
   11.7190   16.7320   22.4180 H   0  0  0  0  0  0  0  0  0  0  0  0
   11.9150   16.0570   19.9930 H   0  0  0  0  0  0  0  0  0  0  0  0
   12.7580   14.5160   20.0630 H   0  0  0  0  0  0  0  0  0  0  0  0
   13.2080   15.8280   21.1640 H   0  0  0  0  0  0  0  0  0  0  0  0
   10.8930   11.8770   22.0420 H   0  0  0  0  0  0  0  0  0  0  0  0
   10.1510    9.1370   22.9640 H   0  0  0  0  0  0  0  0  0  0  0  0
    6.3260    9.4750   26.1580 H   0  0  0  0  0  0  0  0  0  0  0  0
    5.5000   11.7740   27.1430 H   0  0  0  0  0  0  0  0  0  0  0  0
    6.7570   13.8820   26.3780 H   0  0  0  0  0  0  0  0  0  0  0  0
    8.5990   13.9230   24.8700 H   0  0  0  0  0  0  0  0  0  0  0  0
  1  2  1  0
  2  3  1  0
  2  4  1  0
  2  5  1  0
  5  6  1  0
  6  7  2  0
  6  8  1  0
  8  9  1  0
  9 10  2  0
 10 11  1  0
 11 12  1  0
 12 13  2  0
 13 14  1  0
 14 15  2  0
 15 16  1  0
 16 17  2  0
 17  9  1  0
 17 12  1  0
  1 18  1  0
  1 19  1  0
  1 20  1  0
  3 21  1  0
  3 22  1  0
  3 23  1  0
  4 24  1  0
  4 25  1  0
  4 26  1  0
  8 27  1  0
 10 28  1  0
 13 29  1  0
 14 30  1  0
 15 31  1  0
 16 32  1  0
A    1
 C1 
A    2
 C2 
A    3
 C3 
A    4
 C4 
A    5
 O1 
A    6
 C5 
A    7
 O2 
A    8
 N1 
A    9
 C6 
A   10
 C7 
A   11
 O3 
A   12
 C8 
A   13
 C9 
A   14
 C10
A   15
 C11
A   16
 C12
A   17
 C13
A   18
 H1 
A   19
 H2 
A   20
 H3 
A   21
 H4 
A   22
 H5 
A   23
 H6 
A   24
 H7 
A   25
 H8 
A   26
 H9 
A   27
 H10
A   28
 H11
A   29
 H12
A   30
 H13
A   31
 H14
A   32
 H15
M  END
>  <ref_pdb>  (174) 
x0451_0A

>  <ref_mols>  (174) 
x0451_0A,x0554_0A,x0556_0A,x0566_0A,x0310_0A,x0416_0A

>  <original SMILES>  (174) 
CC(C)(C)OC(=O)Nc1coc2ccccc12

>  <rationale>  (174) 
info info set:ROCS-BB-1RB;Warhead nanÅ to Cys110:SG; hbond:S125; hydroph_interaction:Y89+Y90; 

>  <∆∆G>  (174) 
-7.671357

>  <comRMSD>  (174) 
0.374823

>  <ROCS_TanimotoCombo>  (174) 
0.525

>  <ROCS_ShapeTanimoto>  (174) 
0.333

>  <ROCS_ColorTanimoto>  (174) 
0.192

>  <distance>  (174) 
nan

$$$$
Z1444490089
     RDKit          3D

 44 46  0  0  0  0  0  0  0  0999 V2000
   10.3250   15.9070   17.4160 C   0  0  0  0  0  0  0  0  0  0  0  0
   10.2440   16.3170   18.8440 C   0  0  0  0  0  0  0  0  0  0  0  0
    9.6670   17.6330   18.9160 O   0  0  0  0  0  0  0  0  0  0  0  0
   10.6080   15.5610   19.8760 N   0  0  0  0  0  0  0  0  0  0  0  0
   11.1620   14.4560   19.3260 C   0  0  0  0  0  0  0  0  0  0  0  0
   12.8530   14.9740   19.1520 S   0  0  0  0  0  0  0  0  0  0  0  0
   12.8320   15.6470   20.8150 C   0  0  0  0  0  0  0  0  0  0  0  0
   11.3640   15.9710   20.9780 C   0  0  2  0  0  0  0  0  0  0  0  0
   11.0310   15.3600   22.2510 C   0  0  0  0  0  0  0  0  0  0  0  0
   10.0950   15.7070   22.9590 O   0  0  0  0  0  0  0  0  0  0  0  0
   11.9860   14.2810   22.5120 N   0  0  0  0  0  0  0  0  0  0  0  0
   11.4380   13.0640   23.0370 C   0  0  2  0  0  0  0  0  0  0  0  0
   10.0720   13.1130   23.1250 C   0  0  0  0  0  0  0  0  0  0  0  0
    9.3210   11.9290   23.7550 C   0  0  0  0  0  0  0  0  0  0  0  0
    9.7060   10.4520   23.5030 C   0  0  0  0  0  0  0  0  0  0  0  0
    8.8510    9.6620   24.2230 N   0  0  0  0  0  0  0  0  0  0  0  0
    7.9610   10.5610   24.9040 C   0  0  0  0  0  0  0  0  0  0  0  0
    6.9440    9.8860   25.7580 C   0  0  0  0  0  0  0  0  0  0  0  0
    6.1060   10.8660   26.3900 C   0  0  0  0  0  0  0  0  0  0  0  0
    6.2690   12.2720   26.1900 C   0  0  0  0  0  0  0  0  0  0  0  0
    7.3640   12.8050   25.2810 C   0  0  0  0  0  0  0  0  0  0  0  0
    8.2020   11.9110   24.6480 C   0  0  0  0  0  0  0  0  0  0  0  0
   11.8980   13.0210   24.4790 C   0  0  0  0  0  0  0  0  0  0  0  0
   12.7640   12.3040   24.9580 O   0  0  0  0  0  0  0  0  0  0  0  0
   11.2340   13.8890   25.2610 O   0  0  0  0  0  0  0  0  0  0  0  0
    9.9150   16.6910   16.7720 H   0  0  0  0  0  0  0  0  0  0  0  0
    9.7610   14.9870   17.2230 H   0  0  0  0  0  0  0  0  0  0  0  0
   11.3670   15.7290   17.1250 H   0  0  0  0  0  0  0  0  0  0  0  0
   10.7480   14.1230   18.3810 H   0  0  0  0  0  0  0  0  0  0  0  0
   11.0960   13.6750   20.0690 H   0  0  0  0  0  0  0  0  0  0  0  0
   13.5050   16.4830   20.9010 H   0  0  0  0  0  0  0  0  0  0  0  0
   13.1160   14.9010   21.5530 H   0  0  0  0  0  0  0  0  0  0  0  0
   11.1660   17.0340   21.1320 H   0  0  0  0  0  0  0  0  0  0  0  0
   12.8630   14.5880   22.9460 H   0  0  0  0  0  0  0  0  0  0  0  0
   11.9190   12.2310   22.5210 H   0  0  0  0  0  0  0  0  0  0  0  0
    9.8490   13.9700   23.7640 H   0  0  0  0  0  0  0  0  0  0  0  0
    9.6530   13.3340   22.1530 H   0  0  0  0  0  0  0  0  0  0  0  0
   10.5420   10.1930   22.8420 H   0  0  0  0  0  0  0  0  0  0  0  0
    8.8480    8.6530   24.2680 H   0  0  0  0  0  0  0  0  0  0  0  0
    6.8570    8.8430   25.8790 H   0  0  0  0  0  0  0  0  0  0  0  0
    5.3300   10.4690   27.0360 H   0  0  0  0  0  0  0  0  0  0  0  0
    5.6410   13.0350   26.6600 H   0  0  0  0  0  0  0  0  0  0  0  0
    7.4180   13.8950   25.1860 H   0  0  0  0  0  0  0  0  0  0  0  0
   11.2060   14.7150   24.7380 H   0  0  0  0  0  0  0  0  0  0  0  0
  1  2  1  0
  2  3  2  0
  2  4  1  0
  4  5  1  0
  5  6  1  0
  6  7  1  0
  7  8  1  0
  8  9  1  0
  9 10  2  0
  9 11  1  0
 11 12  1  0
 12 13  1  0
 13 14  1  0
 14 15  2  0
 15 16  1  0
 16 17  1  0
 17 18  2  0
 18 19  1  0
 19 20  2  0
 20 21  1  0
 21 22  2  0
 12 23  1  0
 23 24  2  0
 23 25  1  0
  8  4  1  0
 22 14  1  0
 22 17  1  0
  1 26  1  0
  1 27  1  0
  1 28  1  0
  5 29  1  0
  5 30  1  0
  7 31  1  0
  7 32  1  0
  8 33  1  1
 11 34  1  0
 12 35  1  6
 13 36  1  0
 13 37  1  0
 15 38  1  0
 16 39  1  0
 18 40  1  0
 19 41  1  0
 20 42  1  0
 21 43  1  0
 25 44  1  0
A    1
 C1 
A    2
 C2 
A    3
 O1 
A    4
 N1 
A    5
 C3 
A    6
 S1 
A    7
 C4 
A    8
 C5 
A    9
 C6 
A   10
 O2 
A   11
 N2 
A   12
 C7 
A   13
 C8 
A   14
 C9 
A   15
 C10
A   16
 N3 
A   17
 C11
A   18
 C12
A   19
 C13
A   20
 C14
A   21
 C15
A   22
 C16
A   23
 C17
A   24
 O3 
A   25
 O4 
A   26
 H1 
A   27
 H2 
A   28
 H3 
A   29
 H4 
A   30
 H5 
A   31
 H6 
A   32
 H7 
A   33
 H8 
A   34
 H9 
A   35
 H10
A   36
 H11
A   37
 H12
A   38
 H13
A   39
 H14
A   40
 H15
A   41
 H16
A   42
 H17
A   43
 H18
A   44
 H19
M  END
>  <ref_pdb>  (175) 
x0451_0A

>  <ref_mols>  (175) 
x0451_0A,x0554_0A,x0556_0A,x0566_0A,x0310_0A,x0416_0A

>  <original SMILES>  (175) 
CC(=O)N1CSC[C@@H]1C(=O)N[C@H](Cc1c[nH]c2ccccc12)C(=O)O

>  <rationale>  (175) 
info info set:ROCS-PPI;Warhead nanÅ to Cys110:SG; hbond:S87+H21+G108; saltbridge:H21; 

>  <∆∆G>  (175) 
-7.65781

>  <comRMSD>  (175) 
0.74799

>  <ROCS_TanimotoCombo>  (175) 
0.523

>  <ROCS_ShapeTanimoto>  (175) 
0.355

>  <ROCS_ColorTanimoto>  (175) 
0.169

>  <distance>  (175) 
nan

$$$$
EN300_6479023
     RDKit          3D

 34 35  0  0  0  0  0  0  0  0999 V2000
   10.1860   14.5230   20.6340 C   0  0  0  0  0  0  0  0  0  0  0  0
   11.4380   14.9470   21.3500 C   0  0  0  0  0  0  0  0  0  0  0  0
   12.4510   15.2810   20.3140 C   0  0  0  0  0  0  0  0  0  0  0  0
   11.0690   16.1480   22.1660 C   0  0  0  0  0  0  0  0  0  0  0  0
   11.8970   13.9900   22.3230 O   0  0  0  0  0  0  0  0  0  0  0  0
   11.0730   13.5700   23.3120 C   0  0  0  0  0  0  0  0  0  0  0  0
   10.7970   14.2110   24.3170 O   0  0  0  0  0  0  0  0  0  0  0  0
   10.5810   12.3260   23.0400 N   0  0  0  0  0  0  0  0  0  0  0  0
    9.6220   11.6540   23.7010 C   0  0  0  0  0  0  0  0  0  0  0  0
    8.7450   12.4780   24.4020 C   0  0  0  0  0  0  0  0  0  0  0  0
    7.6800   11.7190   25.1420 C   0  0  0  0  0  0  0  0  0  0  0  0
    6.8180   12.6920   25.8490 C   0  0  0  0  0  0  0  0  0  0  0  0
    5.6450   12.2000   26.6880 C   0  0  0  0  0  0  0  0  0  0  0  0
    5.5150   10.6090   26.6810 C   0  0  0  0  0  0  0  0  0  0  0  0
    6.5110    9.9310   25.8960 C   0  0  0  0  0  0  0  0  0  0  0  0
    7.5520   10.4040   25.1490 C   0  0  0  0  0  0  0  0  0  0  0  0
    8.4110    9.6250   24.4550 N   0  0  0  0  0  0  0  0  0  0  0  0
    9.4070   10.2610   23.7640 C   0  0  0  0  0  0  0  0  0  0  0  0
   10.4230    9.1560   22.9380 Cl  0  0  0  0  0  0  0  0  0  0  0  0
    9.6850   15.3810   20.1770 H   0  0  0  0  0  0  0  0  0  0  0  0
    9.4940   14.0250   21.3160 H   0  0  0  0  0  0  0  0  0  0  0  0
   10.4490   13.8250   19.8380 H   0  0  0  0  0  0  0  0  0  0  0  0
   12.0190   15.9560   19.5740 H   0  0  0  0  0  0  0  0  0  0  0  0
   13.3830   15.7300   20.6300 H   0  0  0  0  0  0  0  0  0  0  0  0
   12.7000   14.3800   19.7460 H   0  0  0  0  0  0  0  0  0  0  0  0
   11.9390   16.5970   22.5910 H   0  0  0  0  0  0  0  0  0  0  0  0
   10.4080   15.8700   23.0000 H   0  0  0  0  0  0  0  0  0  0  0  0
   10.5420   16.8850   21.5470 H   0  0  0  0  0  0  0  0  0  0  0  0
   10.8310   11.9910   22.1010 H   0  0  0  0  0  0  0  0  0  0  0  0
    8.8320   13.5660   24.4100 H   0  0  0  0  0  0  0  0  0  0  0  0
    7.0280   13.7660   25.7640 H   0  0  0  0  0  0  0  0  0  0  0  0
    5.0160   12.9330   27.2020 H   0  0  0  0  0  0  0  0  0  0  0  0
    4.7390   10.0740   27.2230 H   0  0  0  0  0  0  0  0  0  0  0  0
    6.4230    8.8840   25.8950 H   0  0  0  0  0  0  0  0  0  0  0  0
  1  2  1  0
  2  3  1  0
  2  4  1  0
  2  5  1  0
  5  6  1  0
  6  7  2  0
  6  8  1  0
  8  9  1  0
  9 10  2  0
 10 11  1  0
 11 12  2  0
 12 13  1  0
 13 14  2  0
 14 15  1  0
 15 16  2  0
 16 17  1  0
 17 18  2  0
 18 19  1  0
 18  9  1  0
 16 11  1  0
  1 20  1  0
  1 21  1  0
  1 22  1  0
  3 23  1  0
  3 24  1  0
  3 25  1  0
  4 26  1  0
  4 27  1  0
  4 28  1  0
  8 29  1  0
 10 30  1  0
 12 31  1  0
 13 32  1  0
 14 33  1  0
 15 34  1  0
A    1
 C1 
A    2
 C2 
A    3
 C3 
A    4
 C4 
A    5
 O1 
A    6
 C5 
A    7
 O2 
A    8
 N1 
A    9
 C6 
A   10
 C7 
A   11
 C8 
A   12
 C9 
A   13
 C10
A   14
 C11
A   15
 C12
A   16
 C13
A   17
 N2 
A   18
 C14
A   19
CL1 
A   20
 H1 
A   21
 H2 
A   22
 H3 
A   23
 H4 
A   24
 H5 
A   25
 H6 
A   26
 H7 
A   27
 H8 
A   28
 H9 
A   29
 H10
A   30
 H11
A   31
 H12
A   32
 H13
A   33
 H14
A   34
 H15
M  END
>  <ref_pdb>  (176) 
x0451_0A

>  <ref_mols>  (176) 
x0451_0A,x0554_0A,x0556_0A,x0566_0A,x0310_0A,x0416_0A

>  <original SMILES>  (176) 
CC(C)(C)OC(=O)Nc1cc2ccccc2nc1Cl

>  <rationale>  (176) 
info info set:ROCS-BB-1RB;Warhead nanÅ to Cys110:SG; hbond:S125; hydroph_interaction:Y89+Y90; 

>  <∆∆G>  (176) 
-7.648868

>  <comRMSD>  (176) 
0.425074

>  <ROCS_TanimotoCombo>  (176) 
0.513

>  <ROCS_ShapeTanimoto>  (176) 
0.347

>  <ROCS_ColorTanimoto>  (176) 
0.166

>  <distance>  (176) 
nan

$$$$
EN300_28285731
     RDKit          3D

 38 39  0  0  0  0  0  0  0  0999 V2000
   10.6990   15.6950   22.1980 C   0  0  0  0  0  0  0  0  0  0  0  0
   11.2890   14.3170   21.8770 C   0  0  0  0  0  0  0  0  0  0  0  0
   11.7580   14.3660   20.4250 C   0  0  0  0  0  0  0  0  0  0  0  0
   12.5260   14.1160   22.7850 C   0  0  0  0  0  0  0  0  0  0  0  0
   10.5440   13.3810   22.1700 O   0  0  0  0  0  0  0  0  0  0  0  0
   10.3910   13.0100   23.4740 C   0  0  0  0  0  0  0  0  0  0  0  0
   10.9140   13.7080   24.4970 O   0  0  0  0  0  0  0  0  0  0  0  0
    9.5980   11.8540   23.6800 N   0  0  0  0  0  0  0  0  0  0  0  0
    8.4700   11.8040   24.6260 C   0  0  0  0  0  0  0  0  0  0  0  0
    7.8610   13.0640   25.2060 C   0  0  0  0  0  0  0  0  0  0  0  0
    6.7250   12.8170   26.1620 C   0  0  0  0  0  0  0  0  0  0  0  0
    6.0980   13.8470   26.7500 F   0  0  0  0  0  0  0  0  0  0  0  0
    6.3130   11.4880   26.4450 C   0  0  0  0  0  0  0  0  0  0  0  0
    6.9360   10.3750   25.8610 C   0  0  0  0  0  0  0  0  0  0  0  0
    7.9870   10.5830   24.9790 C   0  0  0  0  0  0  0  0  0  0  0  0
    8.9050    9.6620   24.1640 C   0  0  0  0  0  0  0  0  0  0  0  0
    8.7290    8.3250   23.9430 O   0  0  0  0  0  0  0  0  0  0  0  0
    9.9350   10.4660   23.6620 C   0  0  0  0  0  0  0  0  0  0  0  0
   10.5340    9.8630   22.6130 C   0  0  0  0  0  0  0  0  0  0  0  0
   11.0770   10.3220   24.6340 C   0  0  0  0  0  0  0  0  0  0  0  0
   10.3810   15.7230   23.2410 H   0  0  0  0  0  0  0  0  0  0  0  0
   11.4450   16.4770   22.0320 H   0  0  0  0  0  0  0  0  0  0  0  0
    9.8350   15.9040   21.5600 H   0  0  0  0  0  0  0  0  0  0  0  0
   10.9340   14.2380   19.7140 H   0  0  0  0  0  0  0  0  0  0  0  0
   12.2010   15.3440   20.2180 H   0  0  0  0  0  0  0  0  0  0  0  0
   12.4930   13.5930   20.2320 H   0  0  0  0  0  0  0  0  0  0  0  0
   12.2950   14.3130   23.8330 H   0  0  0  0  0  0  0  0  0  0  0  0
   12.8940   13.0870   22.7250 H   0  0  0  0  0  0  0  0  0  0  0  0
   13.3230   14.7870   22.4770 H   0  0  0  0  0  0  0  0  0  0  0  0
    8.2240   14.0650   24.9470 H   0  0  0  0  0  0  0  0  0  0  0  0
    5.4870   11.3320   27.1380 H   0  0  0  0  0  0  0  0  0  0  0  0
    6.6050    9.3740   26.0970 H   0  0  0  0  0  0  0  0  0  0  0  0
    9.8400    9.6250   21.8340 H   0  0  0  0  0  0  0  0  0  0  0  0
   11.0880    8.9460   22.7700 H   0  0  0  0  0  0  0  0  0  0  0  0
   11.2520   10.5610   22.2470 H   0  0  0  0  0  0  0  0  0  0  0  0
   10.9060    9.4830   25.3000 H   0  0  0  0  0  0  0  0  0  0  0  0
   12.0310   10.1790   24.1230 H   0  0  0  0  0  0  0  0  0  0  0  0
   11.1740   11.2190   25.2320 H   0  0  0  0  0  0  0  0  0  0  0  0
  1  2  1  0
  2  3  1  0
  2  4  1  0
  2  5  1  0
  5  6  1  0
  6  7  2  0
  6  8  1  0
  8  9  1  0
  9 10  2  0
 10 11  1  0
 11 12  1  0
 11 13  2  0
 13 14  1  0
 14 15  2  0
 15 16  1  0
 16 17  2  0
 16 18  1  0
 18 19  1  0
 18 20  1  0
 18  8  1  0
 15  9  1  0
  1 21  1  0
  1 22  1  0
  1 23  1  0
  3 24  1  0
  3 25  1  0
  3 26  1  0
  4 27  1  0
  4 28  1  0
  4 29  1  0
 10 30  1  0
 13 31  1  0
 14 32  1  0
 19 33  1  0
 19 34  1  0
 19 35  1  0
 20 36  1  0
 20 37  1  0
 20 38  1  0
A    1
 C1 
A    2
 C2 
A    3
 C3 
A    4
 C4 
A    5
 O1 
A    6
 C5 
A    7
 O2 
A    8
 N1 
A    9
 C6 
A   10
 C7 
A   11
 C8 
A   12
 F1 
A   13
 C9 
A   14
 C10
A   15
 C11
A   16
 C12
A   17
 O3 
A   18
 C13
A   19
 C14
A   20
 C15
A   21
 H1 
A   22
 H2 
A   23
 H3 
A   24
 H4 
A   25
 H5 
A   26
 H6 
A   27
 H7 
A   28
 H8 
A   29
 H9 
A   30
 H10
A   31
 H11
A   32
 H12
A   33
 H13
A   34
 H14
A   35
 H15
A   36
 H16
A   37
 H17
A   38
 H18
M  END
>  <ref_pdb>  (177) 
x0451_0A

>  <ref_mols>  (177) 
x0451_0A,x0554_0A,x0556_0A,x0566_0A,x0310_0A,x0416_0A

>  <original SMILES>  (177) 
CC(C)(C)OC(=O)N1c2cc(F)ccc2C(=O)C1(C)C

>  <rationale>  (177) 
info info set:ROCS-BB-0RB;Warhead nanÅ to Cys110:SG; hydroph_interaction:Y89+A110+V124; 

>  <∆∆G>  (177) 
-7.644577

>  <comRMSD>  (177) 
0.604756

>  <ROCS_TanimotoCombo>  (177) 
0.503

>  <ROCS_ShapeTanimoto>  (177) 
0.365

>  <ROCS_ColorTanimoto>  (177) 
0.138

>  <distance>  (177) 
nan

$$$$
EN300_28295285
     RDKit          3D

 31 32  0  0  0  0  0  0  0  0999 V2000
   10.1040   14.4970   20.9080 C   0  0  0  0  0  0  0  0  0  0  0  0
   11.4300   14.9730   21.4960 C   0  0  0  0  0  0  0  0  0  0  0  0
   12.4210   15.2860   20.3800 C   0  0  0  0  0  0  0  0  0  0  0  0
   11.0820   16.1840   22.2750 C   0  0  0  0  0  0  0  0  0  0  0  0
   11.8990   13.9470   22.3850 O   0  0  0  0  0  0  0  0  0  0  0  0
   11.0890   13.4110   23.3210 C   0  0  0  0  0  0  0  0  0  0  0  0
   10.6940   14.0130   24.3360 O   0  0  0  0  0  0  0  0  0  0  0  0
   10.7380   12.0650   23.0150 N   0  0  0  0  0  0  0  0  0  0  0  0
    9.7080   11.4230   23.7150 C   0  0  0  0  0  0  0  0  0  0  0  0
    9.7550    9.7290   23.4630 S   0  0  0  0  0  0  0  0  0  0  0  0
    8.4630    9.3550   24.4010 N   0  0  0  0  0  0  0  0  0  0  0  0
    7.9470   10.4590   24.9420 C   0  0  0  0  0  0  0  0  0  0  0  0
    6.8540   10.5340   25.7960 C   0  0  0  0  0  0  0  0  0  0  0  0
    6.4980   11.7950   26.2290 C   0  0  0  0  0  0  0  0  0  0  0  0
    7.1510   12.9720   25.8680 C   0  0  0  0  0  0  0  0  0  0  0  0
    6.5200   14.6280   26.5630 Br  0  0  0  0  0  0  0  0  0  0  0  0
    8.2660   12.9730   25.0090 C   0  0  0  0  0  0  0  0  0  0  0  0
    8.6500   11.7050   24.5580 C   0  0  0  0  0  0  0  0  0  0  0  0
    9.5110   15.3360   20.5270 H   0  0  0  0  0  0  0  0  0  0  0  0
   10.3070   13.8220   20.0790 H   0  0  0  0  0  0  0  0  0  0  0  0
    9.5160   13.9730   21.6630 H   0  0  0  0  0  0  0  0  0  0  0  0
   12.8590   14.5620   19.7110 H   0  0  0  0  0  0  0  0  0  0  0  0
   13.2680   15.8190   20.8290 H   0  0  0  0  0  0  0  0  0  0  0  0
   11.9480   15.9970   19.7000 H   0  0  0  0  0  0  0  0  0  0  0  0
   11.7020   17.0050   21.9340 H   0  0  0  0  0  0  0  0  0  0  0  0
   10.0390   16.4680   22.1090 H   0  0  0  0  0  0  0  0  0  0  0  0
   11.2370   16.0600   23.3520 H   0  0  0  0  0  0  0  0  0  0  0  0
   10.9100   11.7990   22.0480 H   0  0  0  0  0  0  0  0  0  0  0  0
    6.3090    9.6360   26.1060 H   0  0  0  0  0  0  0  0  0  0  0  0
    5.6530   11.9700   26.9060 H   0  0  0  0  0  0  0  0  0  0  0  0
    8.7520   13.8990   24.7480 H   0  0  0  0  0  0  0  0  0  0  0  0
  1  2  1  0
  2  3  1  0
  2  4  1  0
  2  5  1  0
  5  6  1  0
  6  7  2  0
  6  8  1  0
  8  9  1  0
  9 10  1  0
 10 11  1  0
 11 12  2  0
 12 13  1  0
 13 14  2  0
 14 15  1  0
 15 16  1  0
 15 17  2  0
 17 18  1  0
 18  9  2  0
 18 12  1  0
  1 19  1  0
  1 20  1  0
  1 21  1  0
  3 22  1  0
  3 23  1  0
  3 24  1  0
  4 25  1  0
  4 26  1  0
  4 27  1  0
  8 28  1  0
 13 29  1  0
 14 30  1  0
 17 31  1  0
A    1
 C1 
A    2
 C2 
A    3
 C3 
A    4
 C4 
A    5
 O1 
A    6
 C5 
A    7
 O2 
A    8
 N1 
A    9
 C6 
A   10
 S1 
A   11
 N2 
A   12
 C7 
A   13
 C8 
A   14
 C9 
A   15
 C10
A   16
BR1 
A   17
 C11
A   18
 C12
A   19
 H1 
A   20
 H2 
A   21
 H3 
A   22
 H4 
A   23
 H5 
A   24
 H6 
A   25
 H7 
A   26
 H8 
A   27
 H9 
A   28
 H10
A   29
 H11
A   30
 H12
A   31
 H13
M  END
>  <ref_pdb>  (178) 
x0451_0A

>  <ref_mols>  (178) 
x0451_0A,x0554_0A,x0556_0A,x0566_0A,x0310_0A,x0416_0A

>  <original SMILES>  (178) 
CC(C)(C)OC(=O)Nc1snc2ccc(Br)cc12

>  <rationale>  (178) 
info info set:ROCS-BB-1RB;Warhead nanÅ to Cys110:SG; hbond:S125; hydroph_interaction:Y89+Y90; 

>  <∆∆G>  (178) 
-7.630526

>  <comRMSD>  (178) 
0.423119

>  <ROCS_TanimotoCombo>  (178) 
0.513

>  <ROCS_ShapeTanimoto>  (178) 
0.33

>  <ROCS_ColorTanimoto>  (178) 
0.183

>  <distance>  (178) 
nan

$$$$
Z3886495968
     RDKit          3D

 42 44  0  0  0  0  0  0  0  0999 V2000
    3.7980   13.6190   28.3890 C   0  0  0  0  0  0  0  0  0  0  0  0
    4.6170   13.7250   27.0760 C   0  0  0  0  0  0  0  0  0  0  0  0
    5.6360   12.6010   26.8100 C   0  0  0  0  0  0  0  0  0  0  0  0
    5.7990   11.7300   27.6640 O   0  0  0  0  0  0  0  0  0  0  0  0
    6.2620   12.7230   25.5950 N   0  0  0  0  0  0  0  0  0  0  0  0
    7.3690   11.9980   25.1130 C   0  0  0  0  0  0  0  0  0  0  0  0
    8.3350   12.6590   24.4120 C   0  0  0  0  0  0  0  0  0  0  0  0
    9.5590   12.1440   23.8140 C   0  0  0  0  0  0  0  0  0  0  0  0
   10.5520   12.2250   23.2290 N   0  0  0  0  0  0  0  0  0  0  0  0
   11.2800   13.3830   23.2730 C   0  0  0  0  0  0  0  0  0  0  0  0
   11.4260   14.0260   24.3180 O   0  0  0  0  0  0  0  0  0  0  0  0
   11.8740   13.8430   21.9640 C   0  0  2  0  0  0  0  0  0  0  0  0
   12.6080   15.1700   22.0380 C   0  0  0  0  0  0  0  0  0  0  0  0
   12.6500   15.6500   20.5770 C   0  0  0  0  0  0  0  0  0  0  0  0
   13.7200   16.5590   20.0670 C   0  0  0  0  0  0  0  0  0  0  0  0
   13.6510   16.9600   18.6330 C   0  0  0  0  0  0  0  0  0  0  0  0
   14.7410   17.8980   18.1250 C   0  0  0  0  0  0  0  0  0  0  0  0
   12.6130   16.4640   17.8520 C   0  0  0  0  0  0  0  0  0  0  0  0
   11.5520   15.5360   18.4380 C   0  0  0  0  0  0  0  0  0  0  0  0
   11.6420   15.1920   19.7770 C   0  0  0  0  0  0  0  0  0  0  0  0
   10.5730   14.1790   20.7250 S   0  0  0  0  0  0  0  0  0  0  0  0
    9.5860   10.6110   24.1110 C   0  0  0  0  0  0  0  0  0  0  0  0
    8.5730    9.9570   24.8370 C   0  0  0  0  0  0  0  0  0  0  0  0
    7.4780   10.6510   25.3330 C   0  0  0  0  0  0  0  0  0  0  0  0
    6.5230   10.0210   26.0280 F   0  0  0  0  0  0  0  0  0  0  0  0
    3.0550   14.3800   28.6480 H   0  0  0  0  0  0  0  0  0  0  0  0
    3.9520   12.7820   29.0790 H   0  0  0  0  0  0  0  0  0  0  0  0
    4.5220   14.5210   26.3430 H   0  0  0  0  0  0  0  0  0  0  0  0
    5.6820   13.1140   24.8610 H   0  0  0  0  0  0  0  0  0  0  0  0
    8.1880   13.7270   24.2720 H   0  0  0  0  0  0  0  0  0  0  0  0
   10.6200   11.7580   22.3160 H   0  0  0  0  0  0  0  0  0  0  0  0
   12.5330   13.0670   21.5830 H   0  0  0  0  0  0  0  0  0  0  0  0
   12.0160   15.8490   22.6370 H   0  0  0  0  0  0  0  0  0  0  0  0
   13.5840   15.1170   22.4670 H   0  0  0  0  0  0  0  0  0  0  0  0
   14.4870   16.8960   20.7000 H   0  0  0  0  0  0  0  0  0  0  0  0
   15.0310   18.5960   18.9200 H   0  0  0  0  0  0  0  0  0  0  0  0
   14.3960   18.4620   17.2520 H   0  0  0  0  0  0  0  0  0  0  0  0
   15.6200   17.3340   17.8170 H   0  0  0  0  0  0  0  0  0  0  0  0
   12.5410   16.7240   16.8200 H   0  0  0  0  0  0  0  0  0  0  0  0
   10.7410   15.1520   17.8270 H   0  0  0  0  0  0  0  0  0  0  0  0
   10.4210   10.0200   23.7480 H   0  0  0  0  0  0  0  0  0  0  0  0
    8.6680    8.8870   25.0030 H   0  0  0  0  0  0  0  0  0  0  0  0
  1  2  2  0
  2  3  1  0
  3  4  2  0
  3  5  1  0
  5  6  1  0
  6  7  2  0
  7  8  1  0
  8  9  1  0
  9 10  1  0
 10 11  2  0
 10 12  1  0
 12 13  1  0
 13 14  1  0
 14 15  2  0
 15 16  1  0
 16 17  1  0
 16 18  2  0
 18 19  1  0
 19 20  2  0
 20 21  1  0
  8 22  2  0
 22 23  1  0
 23 24  2  0
 24 25  1  0
 24  6  1  0
 21 12  1  0
 20 14  1  0
  1 26  1  0
  1 27  1  0
  2 28  1  0
  5 29  1  0
  7 30  1  0
  9 31  1  0
 12 32  1  6
 13 33  1  0
 13 34  1  0
 15 35  1  0
 17 36  1  0
 17 37  1  0
 17 38  1  0
 18 39  1  0
 19 40  1  0
 22 41  1  0
 23 42  1  0
A    1
 C1 
A    2
 C2 
A    3
 C3 
A    4
 O1 
A    5
 N1 
A    6
 C4 
A    7
 C5 
A    8
 C6 
A    9
 N2 
A   10
 C7 
A   11
 O2 
A   12
 C8 
A   13
 C9 
A   14
 C10
A   15
 C11
A   16
 C12
A   17
 C13
A   18
 C14
A   19
 C15
A   20
 C16
A   21
 S1 
A   22
 C17
A   23
 C18
A   24
 C19
A   25
 F1 
A   26
 H1 
A   27
 H2 
A   28
 H3 
A   29
 H4 
A   30
 H5 
A   31
 H6 
A   32
 H7 
A   33
 H8 
A   34
 H9 
A   35
 H10
A   36
 H11
A   37
 H12
A   38
 H13
A   39
 H14
A   40
 H15
A   41
 H16
A   42
 H17
M  END
>  <ref_pdb>  (179) 
x0451_0A

>  <ref_mols>  (179) 
x0451_0A,x0554_0A,x0556_0A,x0566_0A,x0310_0A,x0416_0A

>  <original SMILES>  (179) 
C=CC(=O)Nc1cc(NC(=O)[C@@H]2Cc3cc(C)ccc3S2)ccc1F

>  <rationale>  (179) 
info info set:ROCS-cov2;Warhead 11.244485977580302Å to Cys110:SG; hbond:S87+S125; hydroph_interaction:Y89+Y90+D39; 

>  <∆∆G>  (179) 
-7.620866

>  <comRMSD>  (179) 
0.648462

>  <ROCS_TanimotoCombo>  (179) 
0.519

>  <ROCS_ShapeTanimoto>  (179) 
0.352

>  <ROCS_ColorTanimoto>  (179) 
0.168

>  <distance>  (179) 
11.244486

$$$$
EN300_12578104
     RDKit          3D

 34 35  0  0  0  0  0  0  0  0999 V2000
   12.4700   15.2320   20.1930 C   0  0  0  0  0  0  0  0  0  0  0  0
   11.4220   15.0480   21.2130 C   0  0  0  0  0  0  0  0  0  0  0  0
   11.0470   16.1660   21.9150 C   0  0  0  0  0  0  0  0  0  0  0  0
   10.2030   14.5710   20.8520 C   0  0  0  0  0  0  0  0  0  0  0  0
   12.0310   14.1510   22.1620 O   0  0  0  0  0  0  0  0  0  0  0  0
   11.3150   13.7790   23.2400 C   0  0  0  0  0  0  0  0  0  0  0  0
   11.3240   14.3310   24.3320 O   0  0  0  0  0  0  0  0  0  0  0  0
   10.5240   12.6680   22.9490 N   0  0  0  0  0  0  0  0  0  0  0  0
    9.5070   12.1660   23.7110 C   0  0  0  0  0  0  0  0  0  0  0  0
    8.6390   13.2290   24.4080 C   0  0  0  0  0  0  0  0  0  0  0  0
    7.5220   12.6170   25.2600 C   0  0  0  0  0  0  0  0  0  0  0  0
    6.3900   13.6440   26.1590 Cl  0  0  0  0  0  0  0  0  0  0  0  0
    7.3980   11.1840   25.3290 N   0  0  0  0  0  0  0  0  0  0  0  0
    8.3000   10.3570   24.6030 C   0  0  0  0  0  0  0  0  0  0  0  0
    8.0210    8.9480   24.7860 C   0  0  0  0  0  0  0  0  0  0  0  0
    8.9060    8.0260   24.0380 C   0  0  0  0  0  0  0  0  0  0  0  0
    9.9330    8.4430   23.2490 C   0  0  0  0  0  0  0  0  0  0  0  0
   10.1630    9.8850   23.1240 C   0  0  0  0  0  0  0  0  0  0  0  0
    9.3370   10.7780   23.8000 C   0  0  0  0  0  0  0  0  0  0  0  0
   13.3710   15.6560   20.6390 H   0  0  0  0  0  0  0  0  0  0  0  0
   12.7120   14.2780   19.7200 H   0  0  0  0  0  0  0  0  0  0  0  0
   12.1040   15.9070   19.4170 H   0  0  0  0  0  0  0  0  0  0  0  0
   11.6850   17.0150   21.7370 H   0  0  0  0  0  0  0  0  0  0  0  0
   10.0650   16.6060   21.9340 H   0  0  0  0  0  0  0  0  0  0  0  0
   11.2320   15.9400   22.9690 H   0  0  0  0  0  0  0  0  0  0  0  0
    9.5720   15.3600   20.4300 H   0  0  0  0  0  0  0  0  0  0  0  0
    9.6840   14.1170   21.6970 H   0  0  0  0  0  0  0  0  0  0  0  0
   10.3110   13.8020   20.0910 H   0  0  0  0  0  0  0  0  0  0  0  0
   10.7770   12.2330   22.0590 H   0  0  0  0  0  0  0  0  0  0  0  0
    8.7710   14.3100   24.3330 H   0  0  0  0  0  0  0  0  0  0  0  0
    7.1950    8.7070   25.4440 H   0  0  0  0  0  0  0  0  0  0  0  0
    8.7310    6.9490   24.1280 H   0  0  0  0  0  0  0  0  0  0  0  0
   10.5500    7.7460   22.7460 H   0  0  0  0  0  0  0  0  0  0  0  0
   10.9820   10.2120   22.4930 H   0  0  0  0  0  0  0  0  0  0  0  0
  1  2  1  0
  2  3  1  0
  2  4  1  0
  2  5  1  0
  5  6  1  0
  6  7  2  0
  6  8  1  0
  8  9  1  0
  9 10  2  0
 10 11  1  0
 11 12  1  0
 11 13  2  0
 13 14  1  0
 14 15  2  0
 15 16  1  0
 16 17  2  0
 17 18  1  0
 18 19  2  0
 19  9  1  0
 19 14  1  0
  1 20  1  0
  1 21  1  0
  1 22  1  0
  3 23  1  0
  3 24  1  0
  3 25  1  0
  4 26  1  0
  4 27  1  0
  4 28  1  0
  8 29  1  0
 10 30  1  0
 15 31  1  0
 16 32  1  0
 17 33  1  0
 18 34  1  0
A    1
 C1 
A    2
 C2 
A    3
 C3 
A    4
 C4 
A    5
 O1 
A    6
 C5 
A    7
 O2 
A    8
 N1 
A    9
 C6 
A   10
 C7 
A   11
 C8 
A   12
CL1 
A   13
 N2 
A   14
 C9 
A   15
 C10
A   16
 C11
A   17
 C12
A   18
 C13
A   19
 C14
A   20
 H1 
A   21
 H2 
A   22
 H3 
A   23
 H4 
A   24
 H5 
A   25
 H6 
A   26
 H7 
A   27
 H8 
A   28
 H9 
A   29
 H10
A   30
 H11
A   31
 H12
A   32
 H13
A   33
 H14
A   34
 H15
M  END
>  <ref_pdb>  (180) 
x0451_0A

>  <ref_mols>  (180) 
x0451_0A,x0554_0A,x0556_0A,x0566_0A,x0310_0A,x0416_0A

>  <original SMILES>  (180) 
CC(C)(C)OC(=O)Nc1cc(Cl)nc2ccccc12

>  <rationale>  (180) 
info info set:ROCS-BB-1RB;Warhead nanÅ to Cys110:SG; hbond:S125; hydroph_interaction:Y90+V124+D109; 

>  <∆∆G>  (180) 
-7.618354

>  <comRMSD>  (180) 
0.645685

>  <ROCS_TanimotoCombo>  (180) 
0.515

>  <ROCS_ShapeTanimoto>  (180) 
0.361

>  <ROCS_ColorTanimoto>  (180) 
0.154

>  <distance>  (180) 
nan

$$$$
Z56983147
     RDKit          3D

 25 25  0  0  0  0  0  0  0  0999 V2000
    6.2190   10.0500   26.0730 C   0  0  0  0  0  0  0  0  0  0  0  0
    7.4160   10.5120   25.2470 C   0  0  0  0  0  0  0  0  0  0  0  0
    8.5820    9.6070   24.8500 C   0  0  0  0  0  0  0  0  0  0  0  0
    9.5710   10.1860   24.1330 C   0  0  0  0  0  0  0  0  0  0  0  0
   10.7950    9.9370   23.5230 C   0  0  0  0  0  0  0  0  0  0  0  0
    9.6670   11.6020   23.6750 C   0  0  0  0  0  0  0  0  0  0  0  0
   10.6930   12.2520   22.9410 N   0  0  0  0  0  0  0  0  0  0  0  0
   11.1350   13.6370   23.1490 C   0  0  0  0  0  0  0  0  0  0  0  0
   10.8470   14.3340   24.1180 O   0  0  0  0  0  0  0  0  0  0  0  0
   12.0140   14.2030   22.0450 C   0  0  0  0  0  0  0  0  0  0  0  0
   11.1300   15.4620   21.1500 Cl  0  0  0  0  0  0  0  0  0  0  0  0
    8.5360   12.3730   24.0650 C   0  0  0  0  0  0  0  0  0  0  0  0
    8.3700   14.0460   23.6420 Cl  0  0  0  0  0  0  0  0  0  0  0  0
    7.4680   11.8420   24.8210 C   0  0  0  0  0  0  0  0  0  0  0  0
    5.4590    9.5360   25.4930 H   0  0  0  0  0  0  0  0  0  0  0  0
    6.5280    9.4090   26.8860 H   0  0  0  0  0  0  0  0  0  0  0  0
    5.7210   10.9170   26.5170 H   0  0  0  0  0  0  0  0  0  0  0  0
    8.6230    8.5530   25.1300 H   0  0  0  0  0  0  0  0  0  0  0  0
   11.6170   10.5690   23.8320 H   0  0  0  0  0  0  0  0  0  0  0  0
   11.1640    8.9440   23.7270 H   0  0  0  0  0  0  0  0  0  0  0  0
   10.7970   10.1000   22.4500 H   0  0  0  0  0  0  0  0  0  0  0  0
   10.8600   11.9020   21.9900 H   0  0  0  0  0  0  0  0  0  0  0  0
   12.8610   14.7030   22.5180 H   0  0  0  0  0  0  0  0  0  0  0  0
   12.4020   13.5110   21.3070 H   0  0  0  0  0  0  0  0  0  0  0  0
    6.6430   12.4950   25.0860 H   0  0  0  0  0  0  0  0  0  0  0  0
  1  2  1  0
  2  3  2  0
  3  4  1  0
  4  5  1  0
  4  6  2  0
  6  7  1  0
  7  8  1  0
  8  9  2  0
  8 10  1  0
 10 11  1  0
  6 12  1  0
 12 13  1  0
 12 14  2  0
 14  2  1  0
  1 15  1  0
  1 16  1  0
  1 17  1  0
  3 18  1  0
  5 19  1  0
  5 20  1  0
  5 21  1  0
  7 22  1  0
 10 23  1  0
 10 24  1  0
 14 25  1  0
A    1
 C1 
A    2
 C2 
A    3
 C3 
A    4
 C4 
A    5
 C5 
A    6
 C6 
A    7
 N1 
A    8
 C7 
A    9
 O1 
A   10
 C8 
A   11
CL1 
A   12
 C9 
A   13
CL2 
A   14
 C10
A   15
 H1 
A   16
 H2 
A   17
 H3 
A   18
 H4 
A   19
 H5 
A   20
 H6 
A   21
 H7 
A   22
 H8 
A   23
 H9 
A   24
 H10
A   25
 H11
M  END
>  <ref_pdb>  (181) 
x0451_0A

>  <ref_mols>  (181) 
x0451_0A,x0554_0A,x0556_0A,x0566_0A,x0310_0A,x0416_0A

>  <original SMILES>  (181) 
Cc1cc(C)c(NC(=O)CCl)c(Cl)c1

>  <rationale>  (181) 
info info set:ROCS-electro;Warhead 4.360199520664163Å to Cys110:SG; hbond:S125; hydroph_interaction:A110; 

>  <∆∆G>  (181) 
-7.611886

>  <comRMSD>  (181) 
0.486803

>  <ROCS_TanimotoCombo>  (181) 
0.406

>  <ROCS_ShapeTanimoto>  (181) 
0.267

>  <ROCS_ColorTanimoto>  (181) 
0.14

>  <distance>  (181) 
4.3602

$$$$
EN300_6512418
     RDKit          3D

 39 40  0  0  0  0  0  0  0  0999 V2000
   10.8650   16.0970   21.9130 C   0  0  0  0  0  0  0  0  0  0  0  0
   11.4110   14.7270   21.8630 C   0  0  0  0  0  0  0  0  0  0  0  0
   12.4830   14.4000   22.6640 C   0  0  0  0  0  0  0  0  0  0  0  0
   11.8210   14.4940   20.4060 C   0  0  0  0  0  0  0  0  0  0  0  0
   10.3700   13.8190   22.2310 O   0  0  0  0  0  0  0  0  0  0  0  0
   10.2150   13.5490   23.5530 C   0  0  0  0  0  0  0  0  0  0  0  0
   10.4050   14.3010   24.4910 O   0  0  0  0  0  0  0  0  0  0  0  0
    9.8010   12.2480   23.6440 C   0  0  1  0  0  0  0  0  0  0  0  0
   10.8410   11.1440   23.5600 C   0  0  0  0  0  0  0  0  0  0  0  0
   10.1990    9.8130   23.2100 C   0  0  0  0  0  0  0  0  0  0  0  0
    9.1290    9.5200   24.2510 C   0  0  2  0  0  0  0  0  0  0  0  0
    8.2970    8.5580   23.5640 N   0  0  0  0  0  0  0  0  0  0  0  0
    8.4190   10.5900   24.8640 C   0  0  0  0  0  0  0  0  0  0  0  0
    7.3000   10.2180   25.8340 C   0  0  0  0  0  0  0  0  0  0  0  0
    6.6040   11.2690   26.4450 C   0  0  0  0  0  0  0  0  0  0  0  0
    6.9840   12.7080   26.1200 C   0  0  0  0  0  0  0  0  0  0  0  0
    8.0120   12.9780   25.2250 C   0  0  0  0  0  0  0  0  0  0  0  0
    8.7150   11.9380   24.6110 C   0  0  0  0  0  0  0  0  0  0  0  0
   11.6520   16.8380   21.7680 H   0  0  0  0  0  0  0  0  0  0  0  0
   10.1200   16.2470   21.1240 H   0  0  0  0  0  0  0  0  0  0  0  0
   10.4110   16.2690   22.8890 H   0  0  0  0  0  0  0  0  0  0  0  0
   12.8330   13.3690   22.6550 H   0  0  0  0  0  0  0  0  0  0  0  0
   12.2300   14.5950   23.7070 H   0  0  0  0  0  0  0  0  0  0  0  0
   13.3290   15.0190   22.3790 H   0  0  0  0  0  0  0  0  0  0  0  0
   12.4390   13.6060   20.3110 H   0  0  0  0  0  0  0  0  0  0  0  0
   12.3810   15.3430   19.9970 H   0  0  0  0  0  0  0  0  0  0  0  0
   10.9410   14.3190   19.7750 H   0  0  0  0  0  0  0  0  0  0  0  0
    9.1750   12.1760   22.8100 H   0  0  0  0  0  0  0  0  0  0  0  0
   11.5810   11.4100   22.8000 H   0  0  0  0  0  0  0  0  0  0  0  0
   11.3980   11.0580   24.5050 H   0  0  0  0  0  0  0  0  0  0  0  0
    9.8620    9.6910   22.1920 H   0  0  0  0  0  0  0  0  0  0  0  0
   10.9280    9.0050   23.2910 H   0  0  0  0  0  0  0  0  0  0  0  0
    9.6580    8.9460   24.9800 H   0  0  0  0  0  0  0  0  0  0  0  0
    8.6720    7.6210   23.7200 H   0  0  0  0  0  0  0  0  0  0  0  0
    8.3560    8.7120   22.5560 H   0  0  0  0  0  0  0  0  0  0  0  0
    7.0350    9.1940   26.0600 H   0  0  0  0  0  0  0  0  0  0  0  0
    5.7990   11.0560   27.1430 H   0  0  0  0  0  0  0  0  0  0  0  0
    6.4470   13.5260   26.5880 H   0  0  0  0  0  0  0  0  0  0  0  0
    8.2540   14.0180   25.0130 H   0  0  0  0  0  0  0  0  0  0  0  0
  1  2  1  0
  2  3  1  0
  2  4  1  0
  2  5  1  0
  5  6  1  0
  6  7  2  0
  6  8  1  0
  8  9  1  0
  9 10  1  0
 10 11  1  0
 11 12  1  0
 11 13  1  0
 13 14  2  0
 14 15  1  0
 15 16  2  0
 16 17  1  0
 17 18  2  0
 18  8  1  0
 18 13  1  0
  1 19  1  0
  1 20  1  0
  1 21  1  0
  3 22  1  0
  3 23  1  0
  3 24  1  0
  4 25  1  0
  4 26  1  0
  4 27  1  0
  8 28  1  6
  9 29  1  0
  9 30  1  0
 10 31  1  0
 10 32  1  0
 11 33  1  1
 12 34  1  0
 12 35  1  0
 14 36  1  0
 15 37  1  0
 16 38  1  0
 17 39  1  0
A    1
 C1 
A    2
 C2 
A    3
 C3 
A    4
 C4 
A    5
 O1 
A    6
 C5 
A    7
 O2 
A    8
 C6 
A    9
 C7 
A   10
 C8 
A   11
 C9 
A   12
 N1 
A   13
 C10
A   14
 C11
A   15
 C12
A   16
 C13
A   17
 C14
A   18
 C15
A   19
 H1 
A   20
 H2 
A   21
 H3 
A   22
 H4 
A   23
 H5 
A   24
 H6 
A   25
 H7 
A   26
 H8 
A   27
 H9 
A   28
 H10
A   29
 H11
A   30
 H12
A   31
 H13
A   32
 H14
A   33
 H15
A   34
 H16
A   35
 H17
A   36
 H18
A   37
 H19
A   38
 H20
A   39
 H21
M  END
>  <ref_pdb>  (182) 
x0451_0A

>  <ref_mols>  (182) 
x0451_0A,x0554_0A,x0556_0A,x0566_0A,x0310_0A,x0416_0A

>  <original SMILES>  (182) 
CC(C)(C)OC(=O)[C@H]1CC[C@H](N)c2ccccc21

>  <rationale>  (182) 
info info set:ROCS-BB-1RB;Warhead nanÅ to Cys110:SG; hbond:T126; hydroph_interaction:Y89; 

>  <∆∆G>  (182) 
-7.608491

>  <comRMSD>  (182) 
0.641024

>  <ROCS_TanimotoCombo>  (182) 
0.507

>  <ROCS_ShapeTanimoto>  (182) 
0.341

>  <ROCS_ColorTanimoto>  (182) 
0.166

>  <distance>  (182) 
nan

$$$$
EN300_75047
     RDKit          3D

 38 39  0  0  0  0  0  0  0  0999 V2000
    9.7500   15.6730   21.4290 C   0  0  0  0  0  0  0  0  0  0  0  0
   10.9790   14.7670   21.5450 C   0  0  0  0  0  0  0  0  0  0  0  0
   12.0710   15.4110   22.3760 C   0  0  0  0  0  0  0  0  0  0  0  0
   11.5720   14.5480   20.1440 C   0  0  0  0  0  0  0  0  0  0  0  0
   10.6270   13.4690   22.1020 O   0  0  0  0  0  0  0  0  0  0  0  0
   10.3850   13.3070   23.4330 C   0  0  0  0  0  0  0  0  0  0  0  0
   10.6660   14.1240   24.2990 O   0  0  0  0  0  0  0  0  0  0  0  0
    9.7480   12.0460   23.6600 N   0  0  0  0  0  0  0  0  0  0  0  0
   10.5560   10.9180   23.4890 C   0  0  0  0  0  0  0  0  0  0  0  0
    9.9070    9.6340   23.4800 C   0  0  0  0  0  0  0  0  0  0  0  0
    8.7220    9.4660   24.2010 C   0  0  0  0  0  0  0  0  0  0  0  0
    8.0750   10.5800   24.7650 C   0  0  0  0  0  0  0  0  0  0  0  0
    6.9950   10.3900   25.5460 C   0  0  0  0  0  0  0  0  0  0  0  0
    6.0690   11.3820   26.2930 C   0  0  0  0  0  0  0  0  0  0  0  0
    6.6900   12.7600   25.9220 C   0  0  0  0  0  0  0  0  0  0  0  0
    6.0930   13.9250   26.4250 N   0  0  0  0  0  0  0  0  0  0  0  0
    7.9160   12.8830   25.0370 C   0  0  0  0  0  0  0  0  0  0  0  0
    8.5800   11.8480   24.4870 C   0  0  0  0  0  0  0  0  0  0  0  0
   10.0490   16.7050   21.2030 H   0  0  0  0  0  0  0  0  0  0  0  0
    9.1640   15.6880   22.3510 H   0  0  0  0  0  0  0  0  0  0  0  0
    9.0970   15.3370   20.6170 H   0  0  0  0  0  0  0  0  0  0  0  0
   12.5470   14.8050   23.1500 H   0  0  0  0  0  0  0  0  0  0  0  0
   11.6420   16.3090   22.8270 H   0  0  0  0  0  0  0  0  0  0  0  0
   12.8580   15.7810   21.7060 H   0  0  0  0  0  0  0  0  0  0  0  0
   10.8000   14.2260   19.4350 H   0  0  0  0  0  0  0  0  0  0  0  0
   12.0010   15.4770   19.7450 H   0  0  0  0  0  0  0  0  0  0  0  0
   12.3580   13.7930   20.1500 H   0  0  0  0  0  0  0  0  0  0  0  0
   11.0550   11.0570   22.5350 H   0  0  0  0  0  0  0  0  0  0  0  0
   11.3600   10.9120   24.2270 H   0  0  0  0  0  0  0  0  0  0  0  0
   10.6340    8.9340   23.9110 H   0  0  0  0  0  0  0  0  0  0  0  0
    9.7500    9.2900   22.4550 H   0  0  0  0  0  0  0  0  0  0  0  0
    8.0020    9.0170   23.5160 H   0  0  0  0  0  0  0  0  0  0  0  0
    8.8750    8.6930   24.9530 H   0  0  0  0  0  0  0  0  0  0  0  0
    6.7090    9.3520   25.6840 H   0  0  0  0  0  0  0  0  0  0  0  0
    5.2030   11.1860   26.9150 H   0  0  0  0  0  0  0  0  0  0  0  0
    6.3430   14.7650   25.9120 H   0  0  0  0  0  0  0  0  0  0  0  0
    5.0910   13.8440   26.5590 H   0  0  0  0  0  0  0  0  0  0  0  0
    8.2610   13.9070   24.8530 H   0  0  0  0  0  0  0  0  0  0  0  0
  1  2  1  0
  2  3  1  0
  2  4  1  0
  2  5  1  0
  5  6  1  0
  6  7  2  0
  6  8  1  0
  8  9  1  0
  9 10  1  0
 10 11  1  0
 11 12  1  0
 12 13  2  0
 13 14  1  0
 14 15  2  0
 15 16  1  0
 15 17  1  0
 17 18  2  0
 18  8  1  0
 18 12  1  0
  1 19  1  0
  1 20  1  0
  1 21  1  0
  3 22  1  0
  3 23  1  0
  3 24  1  0
  4 25  1  0
  4 26  1  0
  4 27  1  0
  9 28  1  0
  9 29  1  0
 10 30  1  0
 10 31  1  0
 11 32  1  0
 11 33  1  0
 13 34  1  0
 14 35  1  0
 16 36  1  0
 16 37  1  0
 17 38  1  0
A    1
 C1 
A    2
 C2 
A    3
 C3 
A    4
 C4 
A    5
 O1 
A    6
 C5 
A    7
 O2 
A    8
 N1 
A    9
 C6 
A   10
 C7 
A   11
 C8 
A   12
 C9 
A   13
 C10
A   14
 C11
A   15
 C12
A   16
 N2 
A   17
 C13
A   18
 C14
A   19
 H1 
A   20
 H2 
A   21
 H3 
A   22
 H4 
A   23
 H5 
A   24
 H6 
A   25
 H7 
A   26
 H8 
A   27
 H9 
A   28
 H10
A   29
 H11
A   30
 H12
A   31
 H13
A   32
 H14
A   33
 H15
A   34
 H16
A   35
 H17
A   36
 H18
A   37
 H19
A   38
 H20
M  END
>  <ref_pdb>  (183) 
x0451_0A

>  <ref_mols>  (183) 
x0451_0A,x0554_0A,x0556_0A,x0566_0A,x0310_0A,x0416_0A

>  <original SMILES>  (183) 
CC(C)(C)OC(=O)N1CCCc2ccc(N)cc21

>  <rationale>  (183) 
info info set:ROCS-BB-0RB;Warhead nanÅ to Cys110:SG; hydroph_interaction:Y89; 

>  <∆∆G>  (183) 
-7.589559

>  <comRMSD>  (183) 
0.439353

>  <ROCS_TanimotoCombo>  (183) 
0.478

>  <ROCS_ShapeTanimoto>  (183) 
0.341

>  <ROCS_ColorTanimoto>  (183) 
0.137

>  <distance>  (183) 
nan

$$$$
Z57033984
     RDKit          3D

 24 24  0  0  0  0  0  0  0  0999 V2000
   10.3830    9.3340   22.9040 C   0  0  0  0  0  0  0  0  0  0  0  0
    9.4100   10.1500   23.6930 C   0  0  0  0  0  0  0  0  0  0  0  0
    8.3830    9.4900   24.3750 C   0  0  0  0  0  0  0  0  0  0  0  0
    7.4400   10.2070   25.1290 C   0  0  0  0  0  0  0  0  0  0  0  0
    7.5300   11.6030   25.1990 C   0  0  0  0  0  0  0  0  0  0  0  0
    6.5550   12.3840   25.9780 N   0  0  0  0  0  4  0  0  0  0  0  0
    6.6180   13.6220   25.9210 O   0  0  0  0  0  0  0  0  0  0  0  0
    5.7360   11.7660   26.6710 O   0  0  0  0  0  1  0  0  0  0  0  0
    8.5580   12.2440   24.5180 C   0  0  0  0  0  0  0  0  0  0  0  0
    9.5010   11.5440   23.7690 C   0  0  0  0  0  0  0  0  0  0  0  0
   10.5470   12.2270   23.0880 N   0  0  0  0  0  0  0  0  0  0  0  0
   11.0130   13.5100   23.3410 C   0  0  0  0  0  0  0  0  0  0  0  0
   10.6570   14.2140   24.2860 O   0  0  0  0  0  0  0  0  0  0  0  0
   12.0270   14.0700   22.3830 C   0  0  0  0  0  0  0  0  0  0  0  0
   11.5580   15.5120   21.5560 Cl  0  0  0  0  0  0  0  0  0  0  0  0
    9.8480    8.6020   22.2920 H   0  0  0  0  0  0  0  0  0  0  0  0
   11.0620    8.7810   23.5620 H   0  0  0  0  0  0  0  0  0  0  0  0
   10.9880    9.9760   22.2630 H   0  0  0  0  0  0  0  0  0  0  0  0
    8.3170    8.4050   24.3180 H   0  0  0  0  0  0  0  0  0  0  0  0
    6.6490    9.6700   25.6510 H   0  0  0  0  0  0  0  0  0  0  0  0
    8.5510   13.3330   24.6310 H   0  0  0  0  0  0  0  0  0  0  0  0
   10.7960   11.8850   22.1530 H   0  0  0  0  0  0  0  0  0  0  0  0
   12.2560   13.3170   21.6250 H   0  0  0  0  0  0  0  0  0  0  0  0
   12.9350   14.3050   22.9490 H   0  0  0  0  0  0  0  0  0  0  0  0
  1  2  1  0
  2  3  2  0
  3  4  1  0
  4  5  2  0
  5  6  1  0
  6  7  2  0
  6  8  1  0
  5  9  1  0
  9 10  2  0
 10 11  1  0
 11 12  1  0
 12 13  2  0
 12 14  1  0
 14 15  1  0
 10  2  1  0
  1 16  1  0
  1 17  1  0
  1 18  1  0
  3 19  1  0
  4 20  1  0
  9 21  1  0
 11 22  1  0
 14 23  1  0
 14 24  1  0
M  CHG  2   6   1   8  -1
A    1
 C1 
A    2
 C2 
A    3
 C3 
A    4
 C4 
A    5
 C5 
A    6
 N1 
A    7
 O1 
A    8
 O2 
A    9
 C6 
A   10
 C7 
A   11
 N2 
A   12
 C8 
A   13
 O3 
A   14
 C9 
A   15
CL1 
A   16
 H1 
A   17
 H2 
A   18
 H3 
A   19
 H4 
A   20
 H5 
A   21
 H6 
A   22
 H7 
A   23
 H8 
A   24
 H9 
M  END
>  <ref_pdb>  (184) 
x0451_0A

>  <ref_mols>  (184) 
x0451_0A,x0554_0A,x0556_0A,x0566_0A,x0310_0A,x0416_0A

>  <original SMILES>  (184) 
Cc1ccc([N+](=O)[O-])cc1NC(=O)CCl

>  <rationale>  (184) 
info info set:ROCS-electro;Warhead 4.262557882304941Å to Cys110:SG; hbond:S125; hydroph_interaction:A110+V124; 

>  <∆∆G>  (184) 
-7.589504

>  <comRMSD>  (184) 
0.283304

>  <ROCS_TanimotoCombo>  (184) 
0.442

>  <ROCS_ShapeTanimoto>  (184) 
0.308

>  <ROCS_ColorTanimoto>  (184) 
0.134

>  <distance>  (184) 
4.262558

$$$$
Z4899589093
     RDKit          3D

 46 48  0  0  0  0  0  0  0  0999 V2000
   16.1900   11.1180   27.7990 C   0  0  0  0  0  0  0  0  0  0  0  0
   14.8340   11.7120   27.4370 C   0  0  0  0  0  0  0  0  0  0  0  0
   14.8190   12.3970   26.0980 C   0  0  0  0  0  0  0  0  0  0  0  0
   15.8760   12.7960   25.6600 O   0  0  0  0  0  0  0  0  0  0  0  0
   13.6310   12.6200   25.4270 N   0  0  0  0  0  0  0  0  0  0  0  0
   13.6760   13.3690   24.3440 C   0  0  0  0  0  0  0  0  0  0  0  0
   13.0880   12.5750   23.4550 C   0  0  0  0  0  0  0  0  0  0  0  0
   12.1750   13.5190   22.6940 C   0  0  0  0  0  0  0  0  0  0  0  0
   10.7710   13.4730   23.2680 C   0  0  0  0  0  0  0  0  0  0  0  0
   10.2200   14.4600   23.7370 O   0  0  0  0  0  0  0  0  0  0  0  0
   10.3160   12.1960   23.1700 N   0  0  0  0  0  0  0  0  0  0  0  0
    9.2640   11.6980   23.9340 C   0  0  0  0  0  0  0  0  0  0  0  0
    8.4600   12.7100   24.7390 C   0  0  0  0  0  0  0  0  0  0  0  0
    7.3260   12.1420   25.5570 C   0  0  0  0  0  0  0  0  0  0  0  0
    7.1320   10.6560   25.4790 C   0  0  0  0  0  0  0  0  0  0  0  0
    5.7890    9.9990   26.4310 S   0  0  0  0  0  0  0  0  0  0  0  0
    5.3420   11.3620   27.3650 C   0  0  0  0  0  0  0  0  0  0  0  0
    6.3340   11.9240   28.0820 N   0  0  0  0  0  0  0  0  0  0  0  0
    6.0280   12.9810   28.8310 C   0  0  0  0  0  0  0  0  0  0  0  0
    4.6390   13.5230   28.8670 C   0  0  0  0  0  0  0  0  0  0  0  0
    3.7280   12.8630   28.0880 C   0  0  0  0  0  0  0  0  0  0  0  0
    4.0520   11.7910   27.3380 N   0  0  0  0  0  0  0  0  0  0  0  0
    7.9510    9.8350   24.7030 C   0  0  0  0  0  0  0  0  0  0  0  0
    9.0000   10.3250   23.9350 C   0  0  0  0  0  0  0  0  0  0  0  0
    9.8110    9.3380   23.1310 C   0  0  0  0  0  0  0  0  0  0  0  0
   12.7060   11.7350   24.7020 C   0  0  0  0  0  0  0  0  0  0  0  0
   17.0510   11.1950   27.1270 H   0  0  0  0  0  0  0  0  0  0  0  0
   16.3310   10.5960   28.7530 H   0  0  0  0  0  0  0  0  0  0  0  0
   13.9680   11.6590   28.0770 H   0  0  0  0  0  0  0  0  0  0  0  0
   14.7080   13.6390   24.2150 H   0  0  0  0  0  0  0  0  0  0  0  0
   13.1690   14.2990   24.5380 H   0  0  0  0  0  0  0  0  0  0  0  0
   13.7810   12.0330   22.8370 H   0  0  0  0  0  0  0  0  0  0  0  0
   12.0690   13.1590   21.6780 H   0  0  0  0  0  0  0  0  0  0  0  0
   12.7300   14.4560   22.5580 H   0  0  0  0  0  0  0  0  0  0  0  0
   10.5280   11.7420   22.2760 H   0  0  0  0  0  0  0  0  0  0  0  0
    8.6520   13.7840   24.7540 H   0  0  0  0  0  0  0  0  0  0  0  0
    6.7260   12.8450   26.1430 H   0  0  0  0  0  0  0  0  0  0  0  0
    6.8400   13.4210   29.4050 H   0  0  0  0  0  0  0  0  0  0  0  0
    4.3720   14.3800   29.4650 H   0  0  0  0  0  0  0  0  0  0  0  0
    2.6890   13.1790   28.0400 H   0  0  0  0  0  0  0  0  0  0  0  0
    7.7720    8.7770   24.6950 H   0  0  0  0  0  0  0  0  0  0  0  0
   10.5720    8.8700   23.7650 H   0  0  0  0  0  0  0  0  0  0  0  0
   10.3360    9.8180   22.3000 H   0  0  0  0  0  0  0  0  0  0  0  0
    9.1630    8.5640   22.7070 H   0  0  0  0  0  0  0  0  0  0  0  0
   13.0200   10.6900   24.6740 H   0  0  0  0  0  0  0  0  0  0  0  0
   11.6730   11.8180   25.0470 H   0  0  0  0  0  0  0  0  0  0  0  0
  1  2  2  0
  2  3  1  0
  3  4  2  0
  3  5  1  0
  5  6  1  0
  6  7  1  0
  7  8  1  0
  8  9  1  0
  9 10  2  0
  9 11  1  0
 11 12  1  0
 12 13  2  0
 13 14  1  0
 14 15  2  0
 15 16  1  0
 16 17  1  0
 17 18  2  0
 18 19  1  0
 19 20  2  0
 20 21  1  0
 21 22  2  0
 15 23  1  0
 23 24  2  0
 24 25  1  0
  7 26  1  0
 26  5  1  0
 24 12  1  0
 22 17  1  0
  1 27  1  0
  1 28  1  0
  2 29  1  0
  6 30  1  0
  6 31  1  0
  7 32  1  0
  8 33  1  0
  8 34  1  0
 11 35  1  0
 13 36  1  0
 14 37  1  0
 19 38  1  0
 20 39  1  0
 21 40  1  0
 23 41  1  0
 25 42  1  0
 25 43  1  0
 25 44  1  0
 26 45  1  0
 26 46  1  0
A    1
 C1 
A    2
 C2 
A    3
 C3 
A    4
 O1 
A    5
 N1 
A    6
 C4 
A    7
 C5 
A    8
 C6 
A    9
 C7 
A   10
 O2 
A   11
 N2 
A   12
 C8 
A   13
 C9 
A   14
 C10
A   15
 C11
A   16
 S1 
A   17
 C12
A   18
 N3 
A   19
 C13
A   20
 C14
A   21
 C15
A   22
 N4 
A   23
 C16
A   24
 C17
A   25
 C18
A   26
 C19
A   27
 H1 
A   28
 H2 
A   29
 H3 
A   30
 H4 
A   31
 H5 
A   32
 H6 
A   33
 H7 
A   34
 H8 
A   35
 H9 
A   36
 H10
A   37
 H11
A   38
 H12
A   39
 H13
A   40
 H14
A   41
 H15
A   42
 H16
A   43
 H17
A   44
 H18
A   45
 H19
A   46
 H20
M  END
>  <ref_pdb>  (185) 
x0451_0A

>  <ref_mols>  (185) 
x0451_0A,x0554_0A,x0556_0A,x0566_0A,x0310_0A,x0416_0A

>  <original SMILES>  (185) 
C=CC(=O)N1CC(CC(=O)Nc2ccc(Sc3ncccn3)cc2C)C1

>  <rationale>  (185) 
info info set:ROCS-cov2;Warhead 4.163253158288601Å to Cys110:SG; hbond:S125; hydroph_interaction:A110+V124; 

>  <∆∆G>  (185) 
-7.581388

>  <comRMSD>  (185) 
0.652081

>  <ROCS_TanimotoCombo>  (185) 
0.535

>  <ROCS_ShapeTanimoto>  (185) 
0.333

>  <ROCS_ColorTanimoto>  (185) 
0.203

>  <distance>  (185) 
4.163253

$$$$
EN300_1902490
     RDKit          3D

 44 46  0  0  0  0  0  0  0  0999 V2000
   12.3580   15.5100   21.2250 C   0  0  0  0  0  0  0  0  0  0  0  0
   11.0540   15.1080   20.6200 C   0  0  0  0  0  0  0  0  0  0  0  0
   11.0920   14.4140   19.4000 C   0  0  0  0  0  0  0  0  0  0  0  0
   10.1840   16.3620   20.4150 C   0  0  0  0  0  0  0  0  0  0  0  0
   10.4090   14.4050   21.7140 O   0  0  0  0  0  0  0  0  0  0  0  0
   10.7820   14.7490   22.9870 C   0  0  0  0  0  0  0  0  0  0  0  0
   10.9020   15.9080   23.3550 O   0  0  0  0  0  0  0  0  0  0  0  0
   11.0510   13.5910   23.9080 N   0  0  0  0  0  0  0  0  0  0  0  0
   11.6790   13.7030   25.1120 C   0  0  0  0  0  0  0  0  0  0  0  0
   12.9690   13.1780   25.1200 C   0  0  0  0  0  0  0  0  0  0  0  0
   12.9770   11.8700   24.7630 N   0  0  0  0  0  0  0  0  0  0  0  0
   12.2580   11.6510   23.5210 C   0  0  0  0  0  0  0  0  0  0  0  0
   11.0590   12.2660   23.3290 C   0  0  1  0  0  0  0  0  0  0  0  0
    9.9430   11.3940   23.8620 C   0  0  0  0  0  0  0  0  0  0  0  0
   10.0660    9.9250   23.5980 C   0  0  0  0  0  0  0  0  0  0  0  0
    8.8740    9.3770   24.2300 N   0  0  0  0  0  0  0  0  0  0  0  0
    8.1330   10.4150   24.8040 C   0  0  0  0  0  0  0  0  0  0  0  0
    6.9820   10.2210   25.4650 N   0  0  0  0  0  0  0  0  0  0  0  0
    6.4450   11.3710   25.9290 C   0  0  0  0  0  0  0  0  0  0  0  0
    6.9700   12.6470   25.7730 C   0  0  0  0  0  0  0  0  0  0  0  0
    8.1630   12.7970   25.0830 C   0  0  0  0  0  0  0  0  0  0  0  0
    8.7670   11.6480   24.5840 C   0  0  0  0  0  0  0  0  0  0  0  0
   12.2620   16.3720   21.8700 H   0  0  0  0  0  0  0  0  0  0  0  0
   12.7520   14.7260   21.8770 H   0  0  0  0  0  0  0  0  0  0  0  0
   13.0870   15.7200   20.4440 H   0  0  0  0  0  0  0  0  0  0  0  0
   10.6380   14.9940   18.5900 H   0  0  0  0  0  0  0  0  0  0  0  0
   12.1190   14.1730   19.0990 H   0  0  0  0  0  0  0  0  0  0  0  0
   10.5640   13.4880   19.4770 H   0  0  0  0  0  0  0  0  0  0  0  0
   10.4850   17.1690   21.0930 H   0  0  0  0  0  0  0  0  0  0  0  0
   10.2730   16.7450   19.3900 H   0  0  0  0  0  0  0  0  0  0  0  0
    9.1250   16.1460   20.5990 H   0  0  0  0  0  0  0  0  0  0  0  0
   11.6980   14.7670   25.3790 H   0  0  0  0  0  0  0  0  0  0  0  0
   11.1030   13.1910   25.8930 H   0  0  0  0  0  0  0  0  0  0  0  0
   13.3800   13.2530   26.1290 H   0  0  0  0  0  0  0  0  0  0  0  0
   13.5840   13.7380   24.4180 H   0  0  0  0  0  0  0  0  0  0  0  0
   13.9440   11.5700   24.6300 H   0  0  0  0  0  0  0  0  0  0  0  0
   12.9360   11.8820   22.6910 H   0  0  0  0  0  0  0  0  0  0  0  0
   12.0060   10.5920   23.5410 H   0  0  0  0  0  0  0  0  0  0  0  0
   10.9170   12.3840   22.2670 H   0  0  0  0  0  0  0  0  0  0  0  0
   10.7980    9.3140   23.0860 H   0  0  0  0  0  0  0  0  0  0  0  0
    8.6030    8.4030   24.2610 H   0  0  0  0  0  0  0  0  0  0  0  0
    5.5110   11.2370   26.4680 H   0  0  0  0  0  0  0  0  0  0  0  0
    6.4500   13.5190   26.1880 H   0  0  0  0  0  0  0  0  0  0  0  0
    8.6030   13.7800   24.9440 H   0  0  0  0  0  0  0  0  0  0  0  0
  1  2  1  0
  2  3  1  0
  2  4  1  0
  2  5  1  0
  5  6  1  0
  6  7  2  0
  6  8  1  0
  8  9  1  0
  9 10  1  0
 10 11  1  0
 11 12  1  0
 12 13  1  0
 13 14  1  0
 14 15  2  0
 15 16  1  0
 16 17  1  0
 17 18  2  0
 18 19  1  0
 19 20  2  0
 20 21  1  0
 21 22  2  0
 13  8  1  0
 22 14  1  0
 22 17  1  0
  1 23  1  0
  1 24  1  0
  1 25  1  0
  3 26  1  0
  3 27  1  0
  3 28  1  0
  4 29  1  0
  4 30  1  0
  4 31  1  0
  9 32  1  0
  9 33  1  0
 10 34  1  0
 10 35  1  0
 11 36  1  0
 12 37  1  0
 12 38  1  0
 13 39  1  6
 15 40  1  0
 16 41  1  0
 19 42  1  0
 20 43  1  0
 21 44  1  0
A    1
 C1 
A    2
 C2 
A    3
 C3 
A    4
 C4 
A    5
 O1 
A    6
 C5 
A    7
 O2 
A    8
 N1 
A    9
 C6 
A   10
 C7 
A   11
 N2 
A   12
 C8 
A   13
 C9 
A   14
 C10
A   15
 C11
A   16
 N3 
A   17
 C12
A   18
 N4 
A   19
 C13
A   20
 C14
A   21
 C15
A   22
 C16
A   23
 H1 
A   24
 H2 
A   25
 H3 
A   26
 H4 
A   27
 H5 
A   28
 H6 
A   29
 H7 
A   30
 H8 
A   31
 H9 
A   32
 H10
A   33
 H11
A   34
 H12
A   35
 H13
A   36
 H14
A   37
 H15
A   38
 H16
A   39
 H17
A   40
 H18
A   41
 H19
A   42
 H20
A   43
 H21
A   44
 H22
M  END
>  <ref_pdb>  (186) 
x0451_0A

>  <ref_mols>  (186) 
x0451_0A,x0554_0A,x0556_0A,x0566_0A,x0310_0A,x0416_0A

>  <original SMILES>  (186) 
CC(C)(C)OC(=O)N1CCNC[C@H]1c1c[nH]c2ncccc12

>  <rationale>  (186) 
info info set:ROCS-BB-1RB;Warhead nanÅ to Cys110:SG; hbond:S87+G108; hydroph_interaction:Y89; 

>  <∆∆G>  (186) 
-7.577633

>  <comRMSD>  (186) 
0.517129

>  <ROCS_TanimotoCombo>  (186) 
0.517

>  <ROCS_ShapeTanimoto>  (186) 
0.357

>  <ROCS_ColorTanimoto>  (186) 
0.16

>  <distance>  (186) 
nan

$$$$
EN300_30455179
     RDKit          3D

 25 27  0  0  0  0  0  0  0  0999 V2000
   12.3860   15.5460   21.1760 S   0  0  0  0  0  0  0  0  0  0  0  0
   11.4740   14.8180   22.4290 C   0  0  0  0  0  0  0  0  0  0  0  0
   11.0480   15.3790   23.6110 N   0  0  0  0  0  0  0  0  0  0  0  0
   10.3600   14.4100   24.2870 N   0  0  0  0  0  0  0  0  0  0  0  0
   10.3660   13.3250   23.5450 C   0  0  0  0  0  0  0  0  0  0  0  0
    9.7370   12.0020   23.8230 C   0  0  0  0  0  0  0  0  0  0  0  0
   10.5210   11.0000   23.0650 C   0  0  0  0  0  0  0  0  0  0  0  0
   10.1290    9.7090   23.0970 C   0  0  0  0  0  0  0  0  0  0  0  0
    8.9250    9.3200   23.9080 C   0  0  0  0  0  0  0  0  0  0  0  0
    8.6240    7.6480   23.7500 Cl  0  0  0  0  0  0  0  0  0  0  0  0
    8.1660   10.4230   24.7190 C   0  0  0  0  0  0  0  0  0  0  0  0
    6.9580   10.1070   25.5920 C   0  0  0  0  0  0  0  0  0  0  0  0
    6.2700   11.2670   26.3380 C   0  0  0  0  0  0  0  0  0  0  0  0
    6.8630   12.5230   26.1150 C   0  0  0  0  0  0  0  0  0  0  0  0
    7.9790   12.7430   25.3010 C   0  0  0  0  0  0  0  0  0  0  0  0
    8.6210   11.7270   24.6210 C   0  0  0  0  0  0  0  0  0  0  0  0
   11.0550   13.5410   22.3770 N   0  0  0  0  0  0  0  0  0  0  0  0
   13.5600   14.9160   21.3540 H   0  0  0  0  0  0  0  0  0  0  0  0
   11.3850   11.2830   22.4850 H   0  0  0  0  0  0  0  0  0  0  0  0
   10.6830    8.9630   22.5340 H   0  0  0  0  0  0  0  0  0  0  0  0
    6.5590    9.1230   25.7190 H   0  0  0  0  0  0  0  0  0  0  0  0
    5.4020   11.1230   26.9780 H   0  0  0  0  0  0  0  0  0  0  0  0
    6.4240   13.3840   26.6090 H   0  0  0  0  0  0  0  0  0  0  0  0
    8.3340   13.7680   25.2200 H   0  0  0  0  0  0  0  0  0  0  0  0
   11.2060   12.8630   21.6320 H   0  0  0  0  0  0  0  0  0  0  0  0
  1  2  1  0
  2  3  2  0
  3  4  1  0
  4  5  2  0
  5  6  1  0
  6  7  2  0
  7  8  1  0
  8  9  2  0
  9 10  1  0
  9 11  1  0
 11 12  2  0
 12 13  1  0
 13 14  2  0
 14 15  1  0
 15 16  2  0
  5 17  1  0
 17  2  1  0
 16  6  1  0
 16 11  1  0
  1 18  1  0
  7 19  1  0
  8 20  1  0
 12 21  1  0
 13 22  1  0
 14 23  1  0
 15 24  1  0
 17 25  1  0
A    1
 S1 
A    2
 C1 
A    3
 N1 
A    4
 N2 
A    5
 C2 
A    6
 C3 
A    7
 C4 
A    8
 C5 
A    9
 C6 
A   10
CL1 
A   11
 C7 
A   12
 C8 
A   13
 C9 
A   14
 C10
A   15
 C11
A   16
 C12
A   17
 N3 
A   18
 H1 
A   19
 H2 
A   20
 H3 
A   21
 H4 
A   22
 H5 
A   23
 H6 
A   24
 H7 
A   25
 H8 
M  END
>  <ref_pdb>  (187) 
x0451_0A

>  <ref_mols>  (187) 
x0451_0A,x0554_0A,x0556_0A,x0566_0A,x0310_0A,x0416_0A

>  <original SMILES>  (187) 
Sc1nnc(-c2ccc(Cl)c3ccccc23)[nH]1

>  <rationale>  (187) 
info info set:ROCS-BB-1RB;Warhead nanÅ to Cys110:SG; hbond:S87; 

>  <∆∆G>  (187) 
-7.565779

>  <comRMSD>  (187) 
0.379617

>  <ROCS_TanimotoCombo>  (187) 
0.524

>  <ROCS_ShapeTanimoto>  (187) 
0.344

>  <ROCS_ColorTanimoto>  (187) 
0.18

>  <distance>  (187) 
nan

$$$$
EN300_7443856
     RDKit          3D

 38 39  0  0  0  0  0  0  0  0999 V2000
   11.2640    9.7670   24.5080 C   0  0  0  0  0  0  0  0  0  0  0  0
   10.1030    9.8480   23.6400 C   0  0  2  0  0  0  0  0  0  0  0  0
    9.9110   11.2850   23.2190 C   0  0  0  0  0  0  0  0  0  0  0  0
    9.8370   12.2570   24.2480 N   0  0  0  0  0  0  0  0  0  0  0  0
   10.1540   13.5520   23.8400 C   0  0  0  0  0  0  0  0  0  0  0  0
   10.3650   14.4780   24.6070 O   0  0  0  0  0  0  0  0  0  0  0  0
   10.2260   13.7070   22.4730 O   0  0  0  0  0  0  0  0  0  0  0  0
   11.3260   14.4840   21.9310 C   0  0  0  0  0  0  0  0  0  0  0  0
   12.4040   13.9420   22.5990 C   0  0  0  0  0  0  0  0  0  0  0  0
   11.5490   14.3930   20.4100 C   0  0  0  0  0  0  0  0  0  0  0  0
   11.1950   15.9310   22.3390 C   0  0  0  0  0  0  0  0  0  0  0  0
    8.6540   11.9270   24.9810 C   0  0  0  0  0  0  0  0  0  0  0  0
    7.9850   13.0770   25.7000 C   0  0  0  0  0  0  0  0  0  0  0  0
    6.8370   12.8540   26.4340 C   0  0  0  0  0  0  0  0  0  0  0  0
    6.3170   11.4150   26.4630 C   0  0  0  0  0  0  0  0  0  0  0  0
    6.9420   10.3590   25.7920 C   0  0  0  0  0  0  0  0  0  0  0  0
    8.1120   10.6170   25.0490 C   0  0  0  0  0  0  0  0  0  0  0  0
    8.8110    9.4780   24.3040 C   0  0  0  0  0  0  0  0  0  0  0  0
    8.3490    8.3560   24.2470 O   0  0  0  0  0  0  0  0  0  0  0  0
   11.2060   10.5500   25.2450 H   0  0  0  0  0  0  0  0  0  0  0  0
   11.3440    8.8040   24.9870 H   0  0  0  0  0  0  0  0  0  0  0  0
   12.1820    9.9330   23.9670 H   0  0  0  0  0  0  0  0  0  0  0  0
   10.2470    9.2250   22.7440 H   0  0  0  0  0  0  0  0  0  0  0  0
   10.6390   11.5760   22.4690 H   0  0  0  0  0  0  0  0  0  0  0  0
    8.8990   11.3430   22.8440 H   0  0  0  0  0  0  0  0  0  0  0  0
   12.2620   13.6440   23.6320 H   0  0  0  0  0  0  0  0  0  0  0  0
   13.2710   14.5810   22.6580 H   0  0  0  0  0  0  0  0  0  0  0  0
   12.7150   13.0320   22.0790 H   0  0  0  0  0  0  0  0  0  0  0  0
   12.3880   13.7530   20.1450 H   0  0  0  0  0  0  0  0  0  0  0  0
   11.7670   15.3790   19.9890 H   0  0  0  0  0  0  0  0  0  0  0  0
   10.6680   14.0070   19.8950 H   0  0  0  0  0  0  0  0  0  0  0  0
   11.1710   16.0390   23.4240 H   0  0  0  0  0  0  0  0  0  0  0  0
   12.0270   16.5200   21.9610 H   0  0  0  0  0  0  0  0  0  0  0  0
   10.2760   16.3820   21.9550 H   0  0  0  0  0  0  0  0  0  0  0  0
    8.4060   14.0850   25.6420 H   0  0  0  0  0  0  0  0  0  0  0  0
    6.3780   13.7070   26.9410 H   0  0  0  0  0  0  0  0  0  0  0  0
    5.4060   11.1950   27.0360 H   0  0  0  0  0  0  0  0  0  0  0  0
    6.5200    9.3590   25.8520 H   0  0  0  0  0  0  0  0  0  0  0  0
  1  2  1  0
  2  3  1  0
  3  4  1  0
  4  5  1  0
  5  6  2  0
  5  7  1  0
  7  8  1  0
  8  9  1  0
  8 10  1  0
  8 11  1  0
  4 12  1  0
 12 13  2  0
 13 14  1  0
 14 15  2  0
 15 16  1  0
 16 17  2  0
 17 18  1  0
 18 19  2  0
 18  2  1  0
 17 12  1  0
  1 20  1  0
  1 21  1  0
  1 22  1  0
  2 23  1  6
  3 24  1  0
  3 25  1  0
  9 26  1  0
  9 27  1  0
  9 28  1  0
 10 29  1  0
 10 30  1  0
 10 31  1  0
 11 32  1  0
 11 33  1  0
 11 34  1  0
 13 35  1  0
 14 36  1  0
 15 37  1  0
 16 38  1  0
A    1
 C1 
A    2
 C2 
A    3
 C3 
A    4
 N1 
A    5
 C4 
A    6
 O1 
A    7
 O2 
A    8
 C5 
A    9
 C6 
A   10
 C7 
A   11
 C8 
A   12
 C9 
A   13
 C10
A   14
 C11
A   15
 C12
A   16
 C13
A   17
 C14
A   18
 C15
A   19
 O3 
A   20
 H1 
A   21
 H2 
A   22
 H3 
A   23
 H4 
A   24
 H5 
A   25
 H6 
A   26
 H7 
A   27
 H8 
A   28
 H9 
A   29
 H10
A   30
 H11
A   31
 H12
A   32
 H13
A   33
 H14
A   34
 H15
A   35
 H16
A   36
 H17
A   37
 H18
A   38
 H19
M  END
>  <ref_pdb>  (188) 
x0451_0A

>  <ref_mols>  (188) 
x0451_0A,x0554_0A,x0556_0A,x0566_0A,x0310_0A,x0416_0A

>  <original SMILES>  (188) 
C[C@@H]1CN(C(=O)OC(C)(C)C)c2ccccc2C1=O

>  <rationale>  (188) 
info info set:ROCS-BB-0RB;Warhead nanÅ to Cys110:SG; hydroph_interaction:A110; 

>  <∆∆G>  (188) 
-7.552777

>  <comRMSD>  (188) 
0.598285

>  <ROCS_TanimotoCombo>  (188) 
0.492

>  <ROCS_ShapeTanimoto>  (188) 
0.358

>  <ROCS_ColorTanimoto>  (188) 
0.134

>  <distance>  (188) 
nan

$$$$
EN300_12443538
     RDKit          3D

 37 38  0  0  0  0  0  0  0  0999 V2000
   10.8850   15.9030   22.1900 C   0  0  0  0  0  0  0  0  0  0  0  0
   11.3310   14.4600   21.9160 C   0  0  0  0  0  0  0  0  0  0  0  0
   12.5090   14.2060   22.8360 C   0  0  0  0  0  0  0  0  0  0  0  0
   11.7970   14.4810   20.4500 C   0  0  0  0  0  0  0  0  0  0  0  0
   10.5360   13.5610   22.1650 O   0  0  0  0  0  0  0  0  0  0  0  0
   10.3010   13.2570   23.4820 C   0  0  0  0  0  0  0  0  0  0  0  0
   10.5850   14.2020   24.5120 O   0  0  0  0  0  0  0  0  0  0  0  0
    9.7570   11.9770   23.6880 N   0  0  0  0  0  0  0  0  0  0  0  0
   10.5810   10.9160   23.5150 C   0  0  0  0  0  0  0  0  0  0  0  0
    9.9880    9.4790   23.5880 C   0  0  0  0  0  0  0  0  0  0  0  0
   10.5180    8.5040   23.0640 O   0  0  0  0  0  0  0  0  0  0  0  0
    8.8350    9.3530   24.2750 N   0  0  0  0  0  0  0  0  0  0  0  0
    8.1470   10.4510   24.7890 C   0  0  0  0  0  0  0  0  0  0  0  0
    7.0370   10.1110   25.5660 C   0  0  0  0  0  0  0  0  0  0  0  0
    6.3150   11.3190   26.0960 C   0  0  0  0  0  0  0  0  0  0  0  0
    5.0810   11.0990   26.9460 C   0  0  0  0  0  0  0  0  0  0  0  0
    4.4280   11.9690   27.4940 O   0  0  0  0  0  0  0  0  0  0  0  0
    4.7440    9.7940   27.0380 O   0  0  0  0  0  0  0  0  0  0  0  0
    6.7540   12.7120   25.8170 C   0  0  0  0  0  0  0  0  0  0  0  0
    7.8870   12.8780   25.0250 C   0  0  0  0  0  0  0  0  0  0  0  0
    8.5920   11.7780   24.5040 C   0  0  0  0  0  0  0  0  0  0  0  0
   11.5220   16.6870   21.7760 H   0  0  0  0  0  0  0  0  0  0  0  0
    9.8650   16.1680   21.9020 H   0  0  0  0  0  0  0  0  0  0  0  0
   10.9350   16.0250   23.2790 H   0  0  0  0  0  0  0  0  0  0  0  0
   12.4340   14.3410   23.9150 H   0  0  0  0  0  0  0  0  0  0  0  0
   13.3030   14.8600   22.4830 H   0  0  0  0  0  0  0  0  0  0  0  0
   12.8600   13.1810   22.6740 H   0  0  0  0  0  0  0  0  0  0  0  0
   12.4290   13.6330   20.2050 H   0  0  0  0  0  0  0  0  0  0  0  0
   10.9350   14.4800   19.7720 H   0  0  0  0  0  0  0  0  0  0  0  0
   12.3660   15.3900   20.2250 H   0  0  0  0  0  0  0  0  0  0  0  0
   11.0600   11.0110   22.5440 H   0  0  0  0  0  0  0  0  0  0  0  0
   11.3600   10.9710   24.2890 H   0  0  0  0  0  0  0  0  0  0  0  0
    8.5540    8.4090   24.5030 H   0  0  0  0  0  0  0  0  0  0  0  0
    6.7180    9.1030   25.7710 H   0  0  0  0  0  0  0  0  0  0  0  0
    5.0510    9.5160   27.9310 H   0  0  0  0  0  0  0  0  0  0  0  0
    6.2240   13.5780   26.2070 H   0  0  0  0  0  0  0  0  0  0  0  0
    8.1850   13.9040   24.8370 H   0  0  0  0  0  0  0  0  0  0  0  0
  1  2  1  0
  2  3  1  0
  2  4  1  0
  2  5  1  0
  5  6  1  0
  6  7  2  0
  6  8  1  0
  8  9  1  0
  9 10  1  0
 10 11  2  0
 10 12  1  0
 12 13  1  0
 13 14  2  0
 14 15  1  0
 15 16  1  0
 16 17  2  0
 16 18  1  0
 15 19  2  0
 19 20  1  0
 20 21  2  0
 21  8  1  0
 21 13  1  0
  1 22  1  0
  1 23  1  0
  1 24  1  0
  3 25  1  0
  3 26  1  0
  3 27  1  0
  4 28  1  0
  4 29  1  0
  4 30  1  0
  9 31  1  0
  9 32  1  0
 12 33  1  0
 14 34  1  0
 18 35  1  0
 19 36  1  0
 20 37  1  0
A    1
 C1 
A    2
 C2 
A    3
 C3 
A    4
 C4 
A    5
 O1 
A    6
 C5 
A    7
 O2 
A    8
 N1 
A    9
 C6 
A   10
 C7 
A   11
 O3 
A   12
 N2 
A   13
 C8 
A   14
 C9 
A   15
 C10
A   16
 C11
A   17
 O4 
A   18
 O5 
A   19
 C12
A   20
 C13
A   21
 C14
A   22
 H1 
A   23
 H2 
A   24
 H3 
A   25
 H4 
A   26
 H5 
A   27
 H6 
A   28
 H7 
A   29
 H8 
A   30
 H9 
A   31
 H10
A   32
 H11
A   33
 H12
A   34
 H13
A   35
 H14
A   36
 H15
A   37
 H16
M  END
>  <ref_pdb>  (189) 
x0451_0A

>  <ref_mols>  (189) 
x0451_0A,x0554_0A,x0556_0A,x0566_0A,x0310_0A,x0416_0A

>  <original SMILES>  (189) 
CC(C)(C)OC(=O)N1CC(=O)Nc2cc(C(=O)O)ccc21

>  <rationale>  (189) 
info info set:ROCS-BB-1RB;Warhead nanÅ to Cys110:SG; hbond:D109; hydroph_interaction:Y89; 

>  <∆∆G>  (189) 
-7.547888

>  <comRMSD>  (189) 
0.360043

>  <ROCS_TanimotoCombo>  (189) 
0.529

>  <ROCS_ShapeTanimoto>  (189) 
0.369

>  <ROCS_ColorTanimoto>  (189) 
0.16

>  <distance>  (189) 
nan

$$$$
Z1824659499
     RDKit          3D

 51 53  0  0  0  0  0  0  0  0999 V2000
   14.6040   18.5290   19.3530 C   0  0  0  0  0  0  0  0  0  0  0  0
   14.6010   17.2680   18.8960 N   0  0  0  0  0  0  0  0  0  0  0  0
   15.2620   17.0640   17.6970 C   0  0  0  0  0  0  0  0  0  0  0  0
   13.4700   16.4570   19.3070 C   0  0  0  0  0  0  0  0  0  0  0  0
   12.5220   16.1080   18.1810 C   0  0  0  0  0  0  0  0  0  0  0  0
   11.4120   15.3570   18.4750 C   0  0  0  0  0  0  0  0  0  0  0  0
   11.1200   14.8870   19.8820 C   0  0  0  0  0  0  0  0  0  0  0  0
   11.9980   15.2150   20.9260 C   0  0  0  0  0  0  0  0  0  0  0  0
   11.8390   14.8620   22.2770 C   0  0  0  0  0  0  0  0  0  0  0  0
   11.3010   13.5370   22.3710 C   0  0  0  0  0  0  0  0  0  0  0  0
   10.5740   13.3730   23.5490 C   0  0  0  0  0  0  0  0  0  0  0  0
   10.4730   14.2930   24.3610 O   0  0  0  0  0  0  0  0  0  0  0  0
    9.9770   12.1060   23.7820 N   0  0  0  0  0  0  0  0  0  0  0  0
   10.7260   10.8610   23.5810 C   0  0  0  0  0  0  0  0  0  0  0  0
    9.9340    9.7070   23.5280 C   0  0  0  0  0  0  0  0  0  0  0  0
    8.9100    9.6580   24.4960 O   0  0  0  0  0  0  0  0  0  0  0  0
    8.0280   10.7610   24.5450 C   0  0  1  0  0  0  0  0  0  0  0  0
    7.0900   10.5010   25.5660 C   0  0  0  0  0  0  0  0  0  0  0  0
    6.6620   11.5920   26.3130 C   0  0  0  0  0  0  0  0  0  0  0  0
    7.4990   12.6840   26.4080 C   0  0  0  0  0  0  0  0  0  0  0  0
    8.7480   12.6010   25.7860 C   0  0  0  0  0  0  0  0  0  0  0  0
    8.6690   12.0270   24.5240 C   0  0  1  0  0  0  0  0  0  0  0  0
   13.1470   15.9840   20.6010 C   0  0  0  0  0  0  0  0  0  0  0  0
   13.8040   18.6860   20.0650 H   0  0  0  0  0  0  0  0  0  0  0  0
   15.5740   18.8370   19.7440 H   0  0  0  0  0  0  0  0  0  0  0  0
   14.4130   19.1780   18.4980 H   0  0  0  0  0  0  0  0  0  0  0  0
   15.6760   18.0060   17.3250 H   0  0  0  0  0  0  0  0  0  0  0  0
   16.0800   16.3770   17.8060 H   0  0  0  0  0  0  0  0  0  0  0  0
   14.5960   16.6530   16.9480 H   0  0  0  0  0  0  0  0  0  0  0  0
   12.6820   16.4330   17.1590 H   0  0  0  0  0  0  0  0  0  0  0  0
   10.7640   15.1340   17.6210 H   0  0  0  0  0  0  0  0  0  0  0  0
   10.2170   14.2980   20.0620 H   0  0  0  0  0  0  0  0  0  0  0  0
   11.4370   15.6190   22.9410 H   0  0  0  0  0  0  0  0  0  0  0  0
   12.8620   14.7860   22.6630 H   0  0  0  0  0  0  0  0  0  0  0  0
   10.5700   13.4530   21.5640 H   0  0  0  0  0  0  0  0  0  0  0  0
   12.0430   12.7720   22.1930 H   0  0  0  0  0  0  0  0  0  0  0  0
   11.4280   11.0000   22.7740 H   0  0  0  0  0  0  0  0  0  0  0  0
   11.3690   10.7910   24.4660 H   0  0  0  0  0  0  0  0  0  0  0  0
   10.4290    8.7450   23.6390 H   0  0  0  0  0  0  0  0  0  0  0  0
    9.4610    9.6470   22.5540 H   0  0  0  0  0  0  0  0  0  0  0  0
    7.4760   10.6940   23.6230 H   0  0  0  0  0  0  0  0  0  0  0  0
    7.3290    9.6320   26.1690 H   0  0  0  0  0  0  0  0  0  0  0  0
    6.1920   10.1460   25.0790 H   0  0  0  0  0  0  0  0  0  0  0  0
    6.4340   11.2550   27.3310 H   0  0  0  0  0  0  0  0  0  0  0  0
    5.7030   11.9190   25.8990 H   0  0  0  0  0  0  0  0  0  0  0  0
    7.6250   12.9350   27.4650 H   0  0  0  0  0  0  0  0  0  0  0  0
    6.9720   13.5430   25.9720 H   0  0  0  0  0  0  0  0  0  0  0  0
    9.3440   13.5090   25.8490 H   0  0  0  0  0  0  0  0  0  0  0  0
    9.3230   11.9030   26.4030 H   0  0  0  0  0  0  0  0  0  0  0  0
    7.9900   12.6600   23.9360 H   0  0  0  0  0  0  0  0  0  0  0  0
   13.7960   16.2120   21.4230 H   0  0  0  0  0  0  0  0  0  0  0  0
  1  2  1  0
  2  3  1  0
  2  4  1  0
  4  5  2  0
  5  6  1  0
  6  7  2  0
  7  8  1  0
  8  9  1  0
  9 10  1  0
 10 11  1  0
 11 12  2  0
 11 13  1  0
 13 14  1  0
 14 15  1  0
 15 16  1  0
 16 17  1  0
 17 18  1  0
 18 19  1  0
 19 20  1  0
 20 21  1  0
 21 22  1  0
  8 23  2  0
 23  4  1  0
 22 13  1  0
 22 17  1  0
  1 24  1  0
  1 25  1  0
  1 26  1  0
  3 27  1  0
  3 28  1  0
  3 29  1  0
  5 30  1  0
  6 31  1  0
  7 32  1  0
  9 33  1  0
  9 34  1  0
 10 35  1  0
 10 36  1  0
 14 37  1  0
 14 38  1  0
 15 39  1  0
 15 40  1  0
 17 41  1  6
 18 42  1  0
 18 43  1  0
 19 44  1  0
 19 45  1  0
 20 46  1  0
 20 47  1  0
 21 48  1  0
 21 49  1  0
 22 50  1  6
 23 51  1  0
A    1
 C1 
A    2
 N1 
A    3
 C2 
A    4
 C3 
A    5
 C4 
A    6
 C5 
A    7
 C6 
A    8
 C7 
A    9
 C8 
A   10
 C9 
A   11
 C10
A   12
 O1 
A   13
 N2 
A   14
 C11
A   15
 C12
A   16
 O2 
A   17
 C13
A   18
 C14
A   19
 C15
A   20
 C16
A   21
 C17
A   22
 C18
A   23
 C19
A   24
 H1 
A   25
 H2 
A   26
 H3 
A   27
 H4 
A   28
 H5 
A   29
 H6 
A   30
 H7 
A   31
 H8 
A   32
 H9 
A   33
 H10
A   34
 H11
A   35
 H12
A   36
 H13
A   37
 H14
A   38
 H15
A   39
 H16
A   40
 H17
A   41
 H18
A   42
 H19
A   43
 H20
A   44
 H21
A   45
 H22
A   46
 H23
A   47
 H24
A   48
 H25
A   49
 H26
A   50
 H27
A   51
 H28
M  END
>  <ref_pdb>  (190) 
x0451_0A

>  <ref_mols>  (190) 
x0451_0A,x0554_0A,x0556_0A,x0566_0A,x0310_0A,x0416_0A

>  <original SMILES>  (190) 
CN(C)c1cccc(CCC(=O)N2CCO[C@H]3CCCC[C@H]32)c1

>  <rationale>  (190) 
info info set:ROCS-PPI;Warhead nanÅ to Cys110:SG; hbond:S87; hydroph_interaction:Y89+Y90+P107+D39; pistack:Y90; 

>  <∆∆G>  (190) 
-7.544431

>  <comRMSD>  (190) 
1.200421

>  <ROCS_TanimotoCombo>  (190) 
0.517

>  <ROCS_ShapeTanimoto>  (190) 
0.321

>  <ROCS_ColorTanimoto>  (190) 
0.196

>  <distance>  (190) 
nan

$$$$
EN300_37397543
     RDKit          3D

 36 37  0  0  0  0  0  0  0  0999 V2000
   10.6980   15.8700   22.0380 C   0  0  0  0  0  0  0  0  0  0  0  0
   11.3480   14.5350   21.7460 C   0  0  0  0  0  0  0  0  0  0  0  0
   11.7290   14.4690   20.2800 C   0  0  0  0  0  0  0  0  0  0  0  0
   12.5380   14.4040   22.6590 C   0  0  0  0  0  0  0  0  0  0  0  0
   10.3720   13.5550   22.1760 O   0  0  0  0  0  0  0  0  0  0  0  0
   10.2740   13.2470   23.5120 C   0  0  0  0  0  0  0  0  0  0  0  0
   10.6190   14.0450   24.3720 O   0  0  0  0  0  0  0  0  0  0  0  0
    9.7390   11.9700   23.7620 N   0  0  0  0  0  0  0  0  0  0  0  0
   10.4920   10.7260   23.4960 C   0  0  0  0  0  0  0  0  0  0  0  0
    9.7250    9.5320   23.4770 C   0  0  0  0  0  0  0  0  0  0  0  0
   10.0360    8.5670   22.7840 O   0  0  0  0  0  0  0  0  0  0  0  0
    8.6140    9.4560   24.2660 N   0  0  0  0  0  0  0  0  0  0  0  0
    8.0720   10.5610   24.9050 C   0  0  0  0  0  0  0  0  0  0  0  0
    6.9940   10.3700   25.7590 C   0  0  0  0  0  0  0  0  0  0  0  0
    6.4180   11.5820   26.4340 C   0  0  0  0  0  0  0  0  0  0  0  0
    5.2420   11.5270   27.3780 C   0  0  0  0  0  0  0  0  0  0  0  0
    4.2040   12.1520   27.2530 O   0  0  0  0  0  0  0  0  0  0  0  0
    5.4390   10.6900   28.4100 O   0  0  0  0  0  0  0  0  0  0  0  0
    7.0020   12.7980   26.1640 C   0  0  0  0  0  0  0  0  0  0  0  0
    8.0620   12.9350   25.3180 N   0  0  0  0  0  0  0  0  0  0  0  0
    8.5850   11.8430   24.6990 C   0  0  0  0  0  0  0  0  0  0  0  0
   11.2970   16.6860   21.6200 H   0  0  0  0  0  0  0  0  0  0  0  0
   10.6210   16.0320   23.1160 H   0  0  0  0  0  0  0  0  0  0  0  0
    9.6910   15.9430   21.6150 H   0  0  0  0  0  0  0  0  0  0  0  0
   12.4130   13.6960   19.9460 H   0  0  0  0  0  0  0  0  0  0  0  0
   12.1910   15.4070   19.9600 H   0  0  0  0  0  0  0  0  0  0  0  0
   10.8140   14.3610   19.6880 H   0  0  0  0  0  0  0  0  0  0  0  0
   12.9170   13.3860   22.6530 H   0  0  0  0  0  0  0  0  0  0  0  0
   12.2670   14.6510   23.6870 H   0  0  0  0  0  0  0  0  0  0  0  0
   13.3420   15.0760   22.3610 H   0  0  0  0  0  0  0  0  0  0  0  0
   10.9960   10.8330   22.5340 H   0  0  0  0  0  0  0  0  0  0  0  0
   11.3080   10.6000   24.2150 H   0  0  0  0  0  0  0  0  0  0  0  0
    8.0050    8.6710   24.0860 H   0  0  0  0  0  0  0  0  0  0  0  0
    6.5720    9.3890   25.9390 H   0  0  0  0  0  0  0  0  0  0  0  0
    5.1760    9.8040   28.0620 H   0  0  0  0  0  0  0  0  0  0  0  0
    6.6460   13.7280   26.6150 H   0  0  0  0  0  0  0  0  0  0  0  0
  1  2  1  0
  2  3  1  0
  2  4  1  0
  2  5  1  0
  5  6  1  0
  6  7  2  0
  6  8  1  0
  8  9  1  0
  9 10  1  0
 10 11  2  0
 10 12  1  0
 12 13  1  0
 13 14  2  0
 14 15  1  0
 15 16  1  0
 16 17  2  0
 16 18  1  0
 15 19  2  0
 19 20  1  0
 20 21  2  0
 21  8  1  0
 21 13  1  0
  1 22  1  0
  1 23  1  0
  1 24  1  0
  3 25  1  0
  3 26  1  0
  3 27  1  0
  4 28  1  0
  4 29  1  0
  4 30  1  0
  9 31  1  0
  9 32  1  0
 12 33  1  0
 14 34  1  0
 18 35  1  0
 19 36  1  0
A    1
 C1 
A    2
 C2 
A    3
 C3 
A    4
 C4 
A    5
 O1 
A    6
 C5 
A    7
 O2 
A    8
 N1 
A    9
 C6 
A   10
 C7 
A   11
 O3 
A   12
 N2 
A   13
 C8 
A   14
 C9 
A   15
 C10
A   16
 C11
A   17
 O4 
A   18
 O5 
A   19
 C12
A   20
 N3 
A   21
 C13
A   22
 H1 
A   23
 H2 
A   24
 H3 
A   25
 H4 
A   26
 H5 
A   27
 H6 
A   28
 H7 
A   29
 H8 
A   30
 H9 
A   31
 H10
A   32
 H11
A   33
 H12
A   34
 H13
A   35
 H14
A   36
 H15
M  END
>  <ref_pdb>  (191) 
x0451_0A

>  <ref_mols>  (191) 
x0451_0A,x0554_0A,x0556_0A,x0566_0A,x0310_0A,x0416_0A

>  <original SMILES>  (191) 
CC(C)(C)OC(=O)N1CC(=O)Nc2cc(C(=O)O)cnc21

>  <rationale>  (191) 
info info set:ROCS-BB-1RB;Warhead nanÅ to Cys110:SG; hbond:S105; hydroph_interaction:Y89; 

>  <∆∆G>  (191) 
-7.542975

>  <comRMSD>  (191) 
0.295653

>  <ROCS_TanimotoCombo>  (191) 
0.519

>  <ROCS_ShapeTanimoto>  (191) 
0.37

>  <ROCS_ColorTanimoto>  (191) 
0.149

>  <distance>  (191) 
nan

$$$$
EN300_784368
     RDKit          3D

 42 44  0  0  0  0  0  0  0  0999 V2000
   11.9200   14.6740   20.0600 C   0  0  0  0  0  0  0  0  0  0  0  0
   11.2670   15.0190   21.3920 C   0  0  0  0  0  0  0  0  0  0  0  0
   10.1860   16.0600   21.1810 C   0  0  0  0  0  0  0  0  0  0  0  0
   12.3280   15.5360   22.2940 C   0  0  0  0  0  0  0  0  0  0  0  0
   10.7150   13.8120   21.9390 O   0  0  0  0  0  0  0  0  0  0  0  0
   10.4670   13.7150   23.2590 C   0  0  0  0  0  0  0  0  0  0  0  0
   10.6670   14.5470   24.1290 O   0  0  0  0  0  0  0  0  0  0  0  0
    9.9460   12.5080   23.4530 N   0  0  0  0  0  0  0  0  0  0  0  0
   10.7660   11.3510   23.4020 C   0  0  0  0  0  0  0  0  0  0  0  0
   10.1730    9.9520   23.1710 C   0  0  0  0  0  0  0  0  0  0  0  0
    8.9990    9.9390   24.1040 C   0  0  0  0  0  0  0  0  0  0  0  0
    8.5390    8.8610   24.6560 N   0  0  0  0  0  0  0  0  0  0  0  0
    7.5240    9.3130   25.4040 N   0  0  0  0  0  0  0  0  0  0  0  0
    7.3280   10.6330   25.3430 C   0  0  0  0  0  0  0  0  0  0  0  0
    6.1880   11.2010   26.1830 C   0  0  0  0  0  0  0  0  0  0  0  0
    6.1490   12.6700   26.5060 C   0  0  0  0  0  0  0  0  0  0  0  0
    5.0600   13.0700   27.2730 C   0  0  0  0  0  0  0  0  0  0  0  0
    4.0530   12.2950   27.7510 N   0  0  0  0  0  0  0  0  0  0  0  0
    4.0840   10.9870   27.4720 C   0  0  0  0  0  0  0  0  0  0  0  0
    5.1930   10.3590   26.6440 C   0  0  0  0  0  0  0  0  0  0  0  0
    8.2810   11.0940   24.4840 C   0  0  0  0  0  0  0  0  0  0  0  0
    8.5870   12.4480   24.0000 C   0  0  0  0  0  0  0  0  0  0  0  0
   12.7010   15.3900   19.8010 H   0  0  0  0  0  0  0  0  0  0  0  0
   11.1980   14.6930   19.2340 H   0  0  0  0  0  0  0  0  0  0  0  0
   12.3730   13.6820   20.0870 H   0  0  0  0  0  0  0  0  0  0  0  0
   10.4240   17.0630   20.8570 H   0  0  0  0  0  0  0  0  0  0  0  0
    9.6340   16.1860   22.1190 H   0  0  0  0  0  0  0  0  0  0  0  0
    9.4570   15.6800   20.4590 H   0  0  0  0  0  0  0  0  0  0  0  0
   11.9500   16.4350   22.7780 H   0  0  0  0  0  0  0  0  0  0  0  0
   12.5990   14.8090   23.0680 H   0  0  0  0  0  0  0  0  0  0  0  0
   13.2300   15.8080   21.7330 H   0  0  0  0  0  0  0  0  0  0  0  0
   11.5620   11.5070   22.6730 H   0  0  0  0  0  0  0  0  0  0  0  0
   11.2720   11.3320   24.3740 H   0  0  0  0  0  0  0  0  0  0  0  0
   10.8920    9.1610   23.4050 H   0  0  0  0  0  0  0  0  0  0  0  0
    9.8400    9.7980   22.1500 H   0  0  0  0  0  0  0  0  0  0  0  0
    6.9960    8.6430   25.9430 H   0  0  0  0  0  0  0  0  0  0  0  0
    6.9100   13.3690   26.1650 H   0  0  0  0  0  0  0  0  0  0  0  0
    4.9620   14.1280   27.5480 H   0  0  0  0  0  0  0  0  0  0  0  0
    3.2610   10.3920   27.8740 H   0  0  0  0  0  0  0  0  0  0  0  0
    5.1890    9.3000   26.4310 H   0  0  0  0  0  0  0  0  0  0  0  0
    7.9100   12.7260   23.1860 H   0  0  0  0  0  0  0  0  0  0  0  0
    8.4910   13.1970   24.7900 H   0  0  0  0  0  0  0  0  0  0  0  0
  1  2  1  0
  2  3  1  0
  2  4  1  0
  2  5  1  0
  5  6  1  0
  6  7  2  0
  6  8  1  0
  8  9  1  0
  9 10  1  0
 10 11  1  0
 11 12  2  0
 12 13  1  0
 13 14  1  0
 14 15  1  0
 15 16  2  0
 16 17  1  0
 17 18  2  0
 18 19  1  0
 19 20  2  0
 14 21  2  0
 21 22  1  0
 22  8  1  0
 21 11  1  0
 20 15  1  0
  1 23  1  0
  1 24  1  0
  1 25  1  0
  3 26  1  0
  3 27  1  0
  3 28  1  0
  4 29  1  0
  4 30  1  0
  4 31  1  0
  9 32  1  0
  9 33  1  0
 10 34  1  0
 10 35  1  0
 13 36  1  0
 16 37  1  0
 17 38  1  0
 19 39  1  0
 20 40  1  0
 22 41  1  0
 22 42  1  0
A    1
 C1 
A    2
 C2 
A    3
 C3 
A    4
 C4 
A    5
 O1 
A    6
 C5 
A    7
 O2 
A    8
 N1 
A    9
 C6 
A   10
 C7 
A   11
 C8 
A   12
 N2 
A   13
 N3 
A   14
 C9 
A   15
 C10
A   16
 C11
A   17
 C12
A   18
 N4 
A   19
 C13
A   20
 C14
A   21
 C15
A   22
 C16
A   23
 H1 
A   24
 H2 
A   25
 H3 
A   26
 H4 
A   27
 H5 
A   28
 H6 
A   29
 H7 
A   30
 H8 
A   31
 H9 
A   32
 H10
A   33
 H11
A   34
 H12
A   35
 H13
A   36
 H14
A   37
 H15
A   38
 H16
A   39
 H17
A   40
 H18
A   41
 H19
A   42
 H20
M  END
>  <ref_pdb>  (192) 
x0451_0A

>  <ref_mols>  (192) 
x0451_0A,x0554_0A,x0556_0A,x0566_0A,x0310_0A,x0416_0A

>  <original SMILES>  (192) 
CC(C)(C)OC(=O)N1CCc2n[nH]c(-c3ccncc3)c2C1

>  <rationale>  (192) 
info info set:ROCS-BB-1RB;Warhead nanÅ to Cys110:SG; hydroph_interaction:Y89; 

>  <∆∆G>  (192) 
-7.536674

>  <comRMSD>  (192) 
0.686902

>  <ROCS_TanimotoCombo>  (192) 
0.509

>  <ROCS_ShapeTanimoto>  (192) 
0.351

>  <ROCS_ColorTanimoto>  (192) 
0.158

>  <distance>  (192) 
nan

$$$$
Z258588828
     RDKit          3D

 29 29  0  0  0  0  0  0  0  0999 V2000
    5.9780   10.3730   27.1610 C   0  0  0  0  0  0  0  0  0  0  0  0
    6.2790   11.7120   27.1290 N   0  0  0  0  0  0  0  0  0  0  0  0
    5.8850   12.4300   28.3290 C   0  0  0  0  0  0  0  0  0  0  0  0
    6.6720   12.3760   25.9660 C   0  0  0  0  0  0  0  0  0  0  0  0
    6.1960   13.4470   25.5910 O   0  0  0  0  0  0  0  0  0  0  0  0
    7.7570   11.7200   25.1330 C   0  0  0  0  0  0  0  0  0  0  0  0
    7.7350   10.3370   25.1050 C   0  0  0  0  0  0  0  0  0  0  0  0
    8.7320    9.6170   24.3390 C   0  0  0  0  0  0  0  0  0  0  0  0
    9.7040   10.2940   23.6350 C   0  0  0  0  0  0  0  0  0  0  0  0
    9.7070   11.6990   23.6810 C   0  0  0  0  0  0  0  0  0  0  0  0
   10.7100   12.3600   22.9630 N   0  0  0  0  0  0  0  0  0  0  0  0
   11.1190   13.6590   23.1530 C   0  0  0  0  0  0  0  0  0  0  0  0
   10.8590   14.3500   24.1390 O   0  0  0  0  0  0  0  0  0  0  0  0
   11.9650   14.2420   21.9930 C   0  0  0  0  0  0  0  0  0  0  0  0
   11.0520   15.4840   21.1060 Cl  0  0  0  0  0  0  0  0  0  0  0  0
    8.7390   12.4040   24.4230 C   0  0  0  0  0  0  0  0  0  0  0  0
    5.6220   10.0410   28.1420 H   0  0  0  0  0  0  0  0  0  0  0  0
    5.1680   10.1680   26.4500 H   0  0  0  0  0  0  0  0  0  0  0  0
    6.8610    9.8000   26.8770 H   0  0  0  0  0  0  0  0  0  0  0  0
    5.7720   11.7750   29.2020 H   0  0  0  0  0  0  0  0  0  0  0  0
    4.9100   12.9080   28.1630 H   0  0  0  0  0  0  0  0  0  0  0  0
    6.6360   13.1900   28.5640 H   0  0  0  0  0  0  0  0  0  0  0  0
    6.9680    9.7930   25.6600 H   0  0  0  0  0  0  0  0  0  0  0  0
    8.7230    8.5260   24.3140 H   0  0  0  0  0  0  0  0  0  0  0  0
   10.4470    9.7440   23.0620 H   0  0  0  0  0  0  0  0  0  0  0  0
   10.9200   11.9900   22.0270 H   0  0  0  0  0  0  0  0  0  0  0  0
   12.3590   13.5630   21.2480 H   0  0  0  0  0  0  0  0  0  0  0  0
   12.8300   14.7520   22.4320 H   0  0  0  0  0  0  0  0  0  0  0  0
    8.7360   13.5000   24.4620 H   0  0  0  0  0  0  0  0  0  0  0  0
  1  2  1  0
  2  3  1  0
  2  4  1  0
  4  5  2  0
  4  6  1  0
  6  7  2  0
  7  8  1  0
  8  9  2  0
  9 10  1  0
 10 11  1  0
 11 12  1  0
 12 13  2  0
 12 14  1  0
 14 15  1  0
 10 16  2  0
 16  6  1  0
  1 17  1  0
  1 18  1  0
  1 19  1  0
  3 20  1  0
  3 21  1  0
  3 22  1  0
  7 23  1  0
  8 24  1  0
  9 25  1  0
 11 26  1  0
 14 27  1  0
 14 28  1  0
 16 29  1  0
A    1
 C1 
A    2
 N1 
A    3
 C2 
A    4
 C3 
A    5
 O1 
A    6
 C4 
A    7
 C5 
A    8
 C6 
A    9
 C7 
A   10
 C8 
A   11
 N2 
A   12
 C9 
A   13
 O2 
A   14
 C10
A   15
CL1 
A   16
 C11
A   17
 H1 
A   18
 H2 
A   19
 H3 
A   20
 H4 
A   21
 H5 
A   22
 H6 
A   23
 H7 
A   24
 H8 
A   25
 H9 
A   26
 H10
A   27
 H11
A   28
 H12
A   29
 H13
M  END
>  <ref_pdb>  (193) 
x0451_0A

>  <ref_mols>  (193) 
x0451_0A,x0554_0A,x0556_0A,x0566_0A,x0310_0A,x0416_0A

>  <original SMILES>  (193) 
CN(C)C(=O)c1cccc(NC(=O)CCl)c1

>  <rationale>  (193) 
info info set:ROCS-electro;Warhead 4.3254791422454Å to Cys110:SG; hbond:S125; 

>  <∆∆G>  (193) 
-7.535408

>  <comRMSD>  (193) 
0.569822

>  <ROCS_TanimotoCombo>  (193) 
0.433

>  <ROCS_ShapeTanimoto>  (193) 
0.297

>  <ROCS_ColorTanimoto>  (193) 
0.137

>  <distance>  (193) 
4.325479

$$$$
Z105311976
     RDKit          3D

 48 51  0  0  0  0  0  0  0  0999 V2000
    4.3570   11.9090   28.9060 C   0  0  0  0  0  0  0  0  0  0  0  0
    5.1380   12.2650   27.6800 C   0  0  0  0  0  0  0  0  0  0  0  0
    6.0210   11.4270   27.1480 N   0  0  0  0  0  0  0  0  0  0  0  0
    6.5910   11.9940   26.0370 C   0  0  0  0  0  0  0  0  0  0  0  0
    7.5570   11.3000   25.2880 C   0  0  0  0  0  0  0  0  0  0  0  0
    7.4600    9.9260   25.1550 C   0  0  0  0  0  0  0  0  0  0  0  0
    8.4520    9.1290   24.3690 C   0  0  0  0  0  0  0  0  0  0  0  0
    9.6030    9.8690   23.6980 C   0  0  0  0  0  0  0  0  0  0  0  0
    9.5790   11.2390   23.9170 C   0  0  0  0  0  0  0  0  0  0  0  0
   10.7070   11.9040   23.2680 N   0  0  0  0  0  0  0  0  0  0  0  0
   10.7630   13.2620   23.4020 C   0  0  0  0  0  0  0  0  0  0  0  0
   10.9190   13.9010   24.4460 O   0  0  0  0  0  0  0  0  0  0  0  0
   10.5930   13.9730   22.0880 C   0  0  0  0  0  0  0  0  0  0  0  0
   10.6800   15.4090   22.2620 N   0  0  0  0  0  0  0  0  0  0  0  0
    9.5810   16.0140   21.5780 C   0  0  0  0  0  0  0  0  0  0  0  0
    9.8620   17.0170   20.6420 C   0  0  0  0  0  0  0  0  0  0  0  0
   10.8340   16.4450   19.8090 N   0  0  0  0  0  0  0  0  0  0  0  0
   10.9190   16.3900   18.4620 C   0  0  0  0  0  0  0  0  0  0  0  0
   12.0410   15.7150   18.0470 C   0  0  0  0  0  0  0  0  0  0  0  0
   12.7690   15.2780   19.3000 C   0  0  0  0  0  0  0  0  0  0  0  0
   11.8710   15.8310   20.3340 C   0  0  0  0  0  0  0  0  0  0  0  0
   11.9640   15.7920   21.7000 C   0  0  2  0  0  0  0  0  0  0  0  0
   12.9030   14.9960   22.2350 C   0  0  0  0  0  0  0  0  0  0  0  0
    8.6230   11.9490   24.6640 C   0  0  0  0  0  0  0  0  0  0  0  0
    6.1290   13.2670   25.7410 C   0  0  0  0  0  0  0  0  0  0  0  0
    4.9480   13.7680   26.8830 S   0  0  0  0  0  0  0  0  0  0  0  0
    4.8680   12.2510   29.8130 H   0  0  0  0  0  0  0  0  0  0  0  0
    4.2410   10.8240   28.9850 H   0  0  0  0  0  0  0  0  0  0  0  0
    3.3670   12.3750   28.8680 H   0  0  0  0  0  0  0  0  0  0  0  0
    6.6370    9.4050   25.6360 H   0  0  0  0  0  0  0  0  0  0  0  0
    8.3730    8.0500   24.2710 H   0  0  0  0  0  0  0  0  0  0  0  0
   10.4010    9.4210   23.0950 H   0  0  0  0  0  0  0  0  0  0  0  0
   10.9080   11.5780   22.3130 H   0  0  0  0  0  0  0  0  0  0  0  0
   11.3680   13.6060   21.4070 H   0  0  0  0  0  0  0  0  0  0  0  0
    9.6230   13.7480   21.6490 H   0  0  0  0  0  0  0  0  0  0  0  0
    8.9950   15.2230   21.0980 H   0  0  0  0  0  0  0  0  0  0  0  0
    8.9350   16.4310   22.3520 H   0  0  0  0  0  0  0  0  0  0  0  0
   10.2850   17.9400   21.0070 H   0  0  0  0  0  0  0  0  0  0  0  0
    9.0570   17.3140   19.9800 H   0  0  0  0  0  0  0  0  0  0  0  0
   10.2390   16.7930   17.6990 H   0  0  0  0  0  0  0  0  0  0  0  0
   12.2780   15.5680   17.0500 H   0  0  0  0  0  0  0  0  0  0  0  0
   13.6670   14.7320   19.3850 H   0  0  0  0  0  0  0  0  0  0  0  0
   12.0720   16.7340   22.1480 H   0  0  0  0  0  0  0  0  0  0  0  0
   12.7020   14.7810   23.2880 H   0  0  0  0  0  0  0  0  0  0  0  0
   13.8530   15.4950   22.1460 H   0  0  0  0  0  0  0  0  0  0  0  0
   12.9220   14.0440   21.7050 H   0  0  0  0  0  0  0  0  0  0  0  0
    8.7240   13.0260   24.7540 H   0  0  0  0  0  0  0  0  0  0  0  0
    6.4100   13.9220   24.9310 H   0  0  0  0  0  0  0  0  0  0  0  0
  1  2  1  0
  2  3  2  0
  3  4  1  0
  4  5  1  0
  5  6  2  0
  6  7  1  0
  7  8  2  0
  8  9  1  0
  9 10  1  0
 10 11  1  0
 11 12  2  0
 11 13  1  0
 13 14  1  0
 14 15  1  0
 15 16  1  0
 16 17  1  0
 17 18  1  0
 18 19  2  0
 19 20  1  0
 20 21  2  0
 21 22  1  0
 22 23  1  0
  9 24  2  0
  4 25  2  0
 25 26  1  0
 26  2  1  0
 24  5  1  0
 22 14  1  0
 21 17  1  0
  1 27  1  0
  1 28  1  0
  1 29  1  0
  6 30  1  0
  7 31  1  0
  8 32  1  0
 10 33  1  0
 13 34  1  0
 13 35  1  0
 15 36  1  0
 15 37  1  0
 16 38  1  0
 16 39  1  0
 18 40  1  0
 19 41  1  0
 20 42  1  0
 22 43  1  1
 23 44  1  0
 23 45  1  0
 23 46  1  0
 24 47  1  0
 25 48  1  0
A    1
 C1 
A    2
 C2 
A    3
 N1 
A    4
 C3 
A    5
 C4 
A    6
 C5 
A    7
 C6 
A    8
 C7 
A    9
 C8 
A   10
 N2 
A   11
 C9 
A   12
 O1 
A   13
 C10
A   14
 N3 
A   15
 C11
A   16
 C12
A   17
 N4 
A   18
 C13
A   19
 C14
A   20
 C15
A   21
 C16
A   22
 C17
A   23
 C18
A   24
 C19
A   25
 C20
A   26
 S1 
A   27
 H1 
A   28
 H2 
A   29
 H3 
A   30
 H4 
A   31
 H5 
A   32
 H6 
A   33
 H7 
A   34
 H8 
A   35
 H9 
A   36
 H10
A   37
 H11
A   38
 H12
A   39
 H13
A   40
 H14
A   41
 H15
A   42
 H16
A   43
 H17
A   44
 H18
A   45
 H19
A   46
 H20
A   47
 H21
A   48
 H22
M  END
>  <ref_pdb>  (194) 
x0451_0A

>  <ref_mols>  (194) 
x0451_0A,x0554_0A,x0556_0A,x0566_0A,x0310_0A,x0416_0A

>  <original SMILES>  (194) 
Cc1nc(-c2cccc(NC(=O)CN3CCn4cccc4[C@@H]3C)c2)cs1

>  <rationale>  (194) 
info info set:ROCS-PPI;Warhead nanÅ to Cys110:SG; hbond:S87+S125; hydroph_interaction:Y89+Y90+D39; 

>  <∆∆G>  (194) 
-7.528258

>  <comRMSD>  (194) 
1.097506

>  <ROCS_TanimotoCombo>  (194) 
0.522

>  <ROCS_ShapeTanimoto>  (194) 
0.373

>  <ROCS_ColorTanimoto>  (194) 
0.148

>  <distance>  (194) 
nan

$$$$
Z108565160
     RDKit          3D

 34 35  0  0  0  0  0  0  0  0999 V2000
    8.8060    7.7710   23.2010 C   0  0  0  0  0  0  0  0  0  0  0  0
    8.2360    8.7400   24.0690 O   0  0  0  0  0  0  0  0  0  0  0  0
    8.7500   10.0010   24.0930 C   0  0  0  0  0  0  0  0  0  0  0  0
   10.0250   10.4390   23.4070 C   0  0  0  0  0  0  0  0  0  0  0  0
   10.4420   11.7710   23.5080 C   0  0  0  0  0  0  0  0  0  0  0  0
    9.6910   12.7970   24.2580 C   0  0  0  0  0  0  0  0  0  0  0  0
    8.5190   12.3870   24.8910 C   0  0  0  0  0  0  0  0  0  0  0  0
    8.0260   10.9410   24.8130 C   0  0  0  0  0  0  0  0  0  0  0  0
    6.8910   10.4960   25.4230 O   0  0  0  0  0  0  0  0  0  0  0  0
    6.2350   11.4360   26.2500 C   0  0  0  0  0  0  0  0  0  0  0  0
   10.2190   14.2260   24.3050 C   0  0  0  0  0  0  0  0  0  0  0  0
   11.5550   14.3660   23.6980 N   0  0  0  0  0  0  0  0  0  0  0  0
   11.6420   15.2290   22.6000 C   0  0  0  0  0  0  0  0  0  0  0  0
   11.1390   16.3250   22.6590 O   0  0  0  0  0  0  0  0  0  0  0  0
   12.3730   14.7730   21.3650 C   0  0  0  0  0  0  0  0  0  0  0  0
   11.4240   14.9210   19.8770 Cl  0  0  0  0  0  0  0  0  0  0  0  0
   12.3140   13.1460   23.7590 C   0  0  0  0  0  0  0  0  0  0  0  0
   11.6720   12.3140   22.8830 C   0  0  0  0  0  0  0  0  0  0  0  0
    9.8030    8.0730   22.8770 H   0  0  0  0  0  0  0  0  0  0  0  0
    8.1480    7.6670   22.3440 H   0  0  0  0  0  0  0  0  0  0  0  0
    8.8510    6.8030   23.6970 H   0  0  0  0  0  0  0  0  0  0  0  0
   10.5740    9.6700   22.8490 H   0  0  0  0  0  0  0  0  0  0  0  0
    7.9560   13.1310   25.4500 H   0  0  0  0  0  0  0  0  0  0  0  0
    5.2700   11.0080   26.5370 H   0  0  0  0  0  0  0  0  0  0  0  0
    6.8030   11.6240   27.1660 H   0  0  0  0  0  0  0  0  0  0  0  0
    6.0340   12.3650   25.7070 H   0  0  0  0  0  0  0  0  0  0  0  0
   10.3250   14.4900   25.3640 H   0  0  0  0  0  0  0  0  0  0  0  0
    9.6260   15.0180   23.8550 H   0  0  0  0  0  0  0  0  0  0  0  0
   13.2730   15.3790   21.2390 H   0  0  0  0  0  0  0  0  0  0  0  0
   12.6510   13.7240   21.4700 H   0  0  0  0  0  0  0  0  0  0  0  0
   12.2780   12.7700   24.7890 H   0  0  0  0  0  0  0  0  0  0  0  0
   13.3540   13.2770   23.4800 H   0  0  0  0  0  0  0  0  0  0  0  0
   12.3140   11.5410   22.5730 H   0  0  0  0  0  0  0  0  0  0  0  0
   11.3960   12.9280   22.0260 H   0  0  0  0  0  0  0  0  0  0  0  0
  1  2  1  0
  2  3  1  0
  3  4  2  0
  4  5  1  0
  5  6  2  0
  6  7  1  0
  7  8  2  0
  8  9  1  0
  9 10  1  0
  6 11  1  0
 11 12  1  0
 12 13  1  0
 13 14  2  0
 13 15  1  0
 15 16  1  0
 12 17  1  0
 17 18  1  0
  8  3  1  0
 18  5  1  0
  1 19  1  0
  1 20  1  0
  1 21  1  0
  4 22  1  0
  7 23  1  0
 10 24  1  0
 10 25  1  0
 10 26  1  0
 11 27  1  0
 11 28  1  0
 15 29  1  0
 15 30  1  0
 17 31  1  0
 17 32  1  0
 18 33  1  0
 18 34  1  0
A    1
 C1 
A    2
 O1 
A    3
 C2 
A    4
 C3 
A    5
 C4 
A    6
 C5 
A    7
 C6 
A    8
 C7 
A    9
 O2 
A   10
 C8 
A   11
 C9 
A   12
 N1 
A   13
 C10
A   14
 O3 
A   15
 C11
A   16
CL1 
A   17
 C12
A   18
 C13
A   19
 H1 
A   20
 H2 
A   21
 H3 
A   22
 H4 
A   23
 H5 
A   24
 H6 
A   25
 H7 
A   26
 H8 
A   27
 H9 
A   28
 H10
A   29
 H11
A   30
 H12
A   31
 H13
A   32
 H14
A   33
 H15
A   34
 H16
M  END
>  <ref_pdb>  (195) 
x0451_0A

>  <ref_mols>  (195) 
x0451_0A,x0554_0A,x0556_0A,x0566_0A,x0310_0A,x0416_0A

>  <original SMILES>  (195) 
COc1cc2c(cc1OC)CN(C(=O)CCl)CC2

>  <rationale>  (195) 
info info set:ROCS-electro;Warhead 5.307734814400584Å to Cys110:SG; hbond:S87; hydroph_interaction:A110; 

>  <∆∆G>  (195) 
-7.526086

>  <comRMSD>  (195) 
0.652348

>  <ROCS_TanimotoCombo>  (195) 
0.445

>  <ROCS_ShapeTanimoto>  (195) 
0.328

>  <ROCS_ColorTanimoto>  (195) 
0.117

>  <distance>  (195) 
5.307735

$$$$
Z45612785
     RDKit          3D

 45 47  0  0  0  0  0  0  0  0999 V2000
   10.8360    9.4680   23.5530 C   0  0  0  0  0  0  0  0  0  0  0  0
    9.8550   10.5240   23.9930 C   0  0  0  0  0  0  0  0  0  0  0  0
    9.8280   11.8640   23.7200 C   0  0  0  0  0  0  0  0  0  0  0  0
   10.7670   12.4640   23.0030 N   0  0  0  0  0  0  0  0  0  0  0  0
   11.7330   13.5370   23.9000 S   0  0  0  0  0  6  0  0  0  0  0  0
   10.9900   13.9850   25.0550 O   0  0  0  0  0  0  0  0  0  0  0  0
   13.0690   13.0100   24.0060 O   0  0  0  0  0  0  0  0  0  0  0  0
   11.6300   14.7190   22.7030 C   0  0  0  0  0  0  0  0  0  0  0  0
   12.0350   14.3180   21.3410 C   0  0  0  0  0  0  0  0  0  0  0  0
   11.9150   15.0590   20.2250 C   0  0  0  0  0  0  0  0  0  0  0  0
   12.8380   15.1560   19.1220 C   0  0  0  0  0  0  0  0  0  0  0  0
   12.4260   16.0200   17.9960 C   0  0  0  0  0  0  0  0  0  0  0  0
   11.2530   16.6770   18.0230 C   0  0  0  0  0  0  0  0  0  0  0  0
   10.3090   16.5910   19.1590 C   0  0  0  0  0  0  0  0  0  0  0  0
   10.7190   15.7680   20.1980 C   0  0  0  0  0  0  0  0  0  0  0  0
    8.6280   12.4250   24.3460 C   0  0  0  0  0  0  0  0  0  0  0  0
    8.2360   13.5950   24.3180 O   0  0  0  0  0  0  0  0  0  0  0  0
    7.9860   11.3580   24.9820 N   0  0  0  0  0  0  0  0  0  0  0  0
    6.9070   11.4380   25.8780 C   0  0  0  0  0  0  0  0  0  0  0  0
    6.4700   10.3240   26.5720 C   0  0  0  0  0  0  0  0  0  0  0  0
    5.3870   10.3550   27.4950 C   0  0  0  0  0  0  0  0  0  0  0  0
    4.7330   11.5580   27.7070 C   0  0  0  0  0  0  0  0  0  0  0  0
    5.1490   12.6950   27.0170 C   0  0  0  0  0  0  0  0  0  0  0  0
    6.2210   12.6360   26.1160 C   0  0  0  0  0  0  0  0  0  0  0  0
    8.7730   10.1570   24.8330 N   0  0  0  0  0  0  0  0  0  0  0  0
    7.9910    9.0870   24.3710 C   0  0  0  0  0  0  0  0  0  0  0  0
   10.4550    8.4740   23.7990 H   0  0  0  0  0  0  0  0  0  0  0  0
   11.7930    9.5990   24.0570 H   0  0  0  0  0  0  0  0  0  0  0  0
   11.0040    9.5060   22.4730 H   0  0  0  0  0  0  0  0  0  0  0  0
   11.2680   12.0850   22.2020 H   0  0  0  0  0  0  0  0  0  0  0  0
   11.2310   15.7330   22.8310 H   0  0  0  0  0  0  0  0  0  0  0  0
   12.4280   13.3110   21.2390 H   0  0  0  0  0  0  0  0  0  0  0  0
   13.7500   14.6430   19.0950 H   0  0  0  0  0  0  0  0  0  0  0  0
   13.0020   16.1970   17.1120 H   0  0  0  0  0  0  0  0  0  0  0  0
   10.9690   17.2960   17.1970 H   0  0  0  0  0  0  0  0  0  0  0  0
    9.3850   17.1710   19.0850 H   0  0  0  0  0  0  0  0  0  0  0  0
   10.0440   15.6720   21.0540 H   0  0  0  0  0  0  0  0  0  0  0  0
    6.9640    9.3700   26.4220 H   0  0  0  0  0  0  0  0  0  0  0  0
    5.0800    9.4550   28.0210 H   0  0  0  0  0  0  0  0  0  0  0  0
    3.9040   11.6100   28.4040 H   0  0  0  0  0  0  0  0  0  0  0  0
    4.6390   13.6400   27.1800 H   0  0  0  0  0  0  0  0  0  0  0  0
    6.5100   13.5480   25.6030 H   0  0  0  0  0  0  0  0  0  0  0  0
    6.9380    9.3300   24.5210 H   0  0  0  0  0  0  0  0  0  0  0  0
    8.1560    8.9220   23.3020 H   0  0  0  0  0  0  0  0  0  0  0  0
    8.2380    8.1720   24.9140 H   0  0  0  0  0  0  0  0  0  0  0  0
  1  2  1  0
  2  3  2  0
  3  4  1  0
  4  5  1  0
  5  6  2  0
  5  7  2  0
  5  8  1  0
  8  9  2  3
  9 10  1  0
 10 11  2  0
 11 12  1  0
 12 13  2  0
 13 14  1  0
 14 15  2  0
  3 16  1  0
 16 17  2  0
 16 18  1  0
 18 19  1  0
 19 20  2  0
 20 21  1  0
 21 22  2  0
 22 23  1  0
 23 24  2  0
 18 25  1  0
 25 26  1  0
 25  2  1  0
 15 10  1  0
 24 19  1  0
  1 27  1  0
  1 28  1  0
  1 29  1  0
  4 30  1  0
  8 31  1  0
  9 32  1  0
 11 33  1  0
 12 34  1  0
 13 35  1  0
 14 36  1  0
 15 37  1  0
 20 38  1  0
 21 39  1  0
 22 40  1  0
 23 41  1  0
 24 42  1  0
 26 43  1  0
 26 44  1  0
 26 45  1  0
A    1
 C1 
A    2
 C2 
A    3
 C3 
A    4
 N1 
A    5
 S1 
A    6
 O1 
A    7
 O2 
A    8
 C4 
A    9
 C5 
A   10
 C6 
A   11
 C7 
A   12
 C8 
A   13
 C9 
A   14
 C10
A   15
 C11
A   16
 C12
A   17
 O3 
A   18
 N2 
A   19
 C13
A   20
 C14
A   21
 C15
A   22
 C16
A   23
 C17
A   24
 C18
A   25
 N3 
A   26
 C19
A   27
 H1 
A   28
 H2 
A   29
 H3 
A   30
 H4 
A   31
 H5 
A   32
 H6 
A   33
 H7 
A   34
 H8 
A   35
 H9 
A   36
 H10
A   37
 H11
A   38
 H12
A   39
 H13
A   40
 H14
A   41
 H15
A   42
 H16
A   43
 H17
A   44
 H18
A   45
 H19
M  END
>  <ref_pdb>  (196) 
x0451_0A

>  <ref_mols>  (196) 
x0451_0A,x0554_0A,x0556_0A,x0566_0A,x0310_0A,x0416_0A

>  <original SMILES>  (196) 
Cc1c(NS(=O)(=O)C=Cc2ccccc2)c(=O)n(-c2ccccc2)n1C

>  <rationale>  (196) 
info info set:ROCS-cov2;Warhead 4.890920674065364Å to Cys110:SG; hbond:S125; hydroph_interaction:Y90+A110+V84+D39; 

>  <∆∆G>  (196) 
-7.523654

>  <comRMSD>  (196) 
1.132343

>  <ROCS_TanimotoCombo>  (196) 
0.518

>  <ROCS_ShapeTanimoto>  (196) 
0.39

>  <ROCS_ColorTanimoto>  (196) 
0.127

>  <distance>  (196) 
4.890921

$$$$
EN300_1129082
     RDKit          3D

 52 54  0  0  0  0  0  0  0  0999 V2000
    4.2710   14.9970   27.4460 C   0  0  0  0  0  0  0  0  0  0  0  0
    5.3230   14.1670   26.9510 O   0  0  0  0  0  0  0  0  0  0  0  0
    5.0210   12.8450   26.9710 C   0  0  0  0  0  0  0  0  0  0  0  0
    4.0670   12.3460   27.5480 O   0  0  0  0  0  0  0  0  0  0  0  0
    5.9580   12.1170   26.2330 C   0  0  0  0  0  0  0  0  0  0  0  0
    7.0030   12.7940   25.3450 C   0  0  0  0  0  0  0  0  0  0  0  0
    8.0110   12.0040   24.5290 C   0  0  0  0  0  0  0  0  0  0  0  0
    7.9460   10.5890   24.6260 C   0  0  0  0  0  0  0  0  0  0  0  0
    6.9180    9.9260   25.5210 C   0  0  0  0  0  0  0  0  0  0  0  0
    5.9310   10.7290   26.3100 C   0  0  0  0  0  0  0  0  0  0  0  0
    5.0430   10.0800   27.0710 F   0  0  0  0  0  0  0  0  0  0  0  0
    8.9080    9.7690   23.8140 C   0  0  2  0  0  0  0  0  0  0  0  0
    9.3270    8.5380   24.4080 N   0  0  0  0  0  0  0  0  0  0  0  0
   10.0490   10.4450   23.3900 C   0  0  0  0  0  0  0  0  0  0  0  0
   10.1830   11.9480   23.7300 C   0  0  1  0  0  0  0  0  0  0  0  0
   10.8370   12.3170   24.9000 C   0  0  0  0  0  0  0  0  0  0  0  0
   11.5360   13.6280   24.8110 C   0  0  0  0  0  0  0  0  0  0  0  0
   11.5590   13.8190   23.3800 N   0  0  0  0  0  0  0  0  0  0  0  0
   11.2880   14.9360   22.6950 C   0  0  0  0  0  0  0  0  0  0  0  0
   11.2270   16.0350   23.2120 O   0  0  0  0  0  0  0  0  0  0  0  0
   11.1030   14.6460   21.3720 O   0  0  0  0  0  0  0  0  0  0  0  0
   11.8240   15.4890   20.5050 C   0  0  0  0  0  0  0  0  0  0  0  0
   12.9870   15.7690   21.3800 C   0  0  0  0  0  0  0  0  0  0  0  0
   12.2720   14.7570   19.2390 C   0  0  0  0  0  0  0  0  0  0  0  0
   10.8860   16.6470   20.1900 C   0  0  0  0  0  0  0  0  0  0  0  0
   11.1280   12.6390   22.7510 C   0  0  0  0  0  0  0  0  0  0  0  0
    8.9170   12.6390   23.7570 O   0  0  0  0  0  0  0  0  0  0  0  0
    4.0980   14.7530   28.4990 H   0  0  0  0  0  0  0  0  0  0  0  0
    4.5380   16.0550   27.3790 H   0  0  0  0  0  0  0  0  0  0  0  0
    3.3410   14.8250   26.8960 H   0  0  0  0  0  0  0  0  0  0  0  0
    7.1210   13.8650   25.2110 H   0  0  0  0  0  0  0  0  0  0  0  0
    6.8220    8.8650   25.6450 H   0  0  0  0  0  0  0  0  0  0  0  0
    8.3600    9.4480   22.9460 H   0  0  0  0  0  0  0  0  0  0  0  0
    9.7200    8.7030   25.3360 H   0  0  0  0  0  0  0  0  0  0  0  0
   10.0830    8.1350   23.8590 H   0  0  0  0  0  0  0  0  0  0  0  0
   10.3360   10.2030   22.3720 H   0  0  0  0  0  0  0  0  0  0  0  0
   10.8620    9.9810   23.9670 H   0  0  0  0  0  0  0  0  0  0  0  0
   10.1200   12.3760   25.7290 H   0  0  0  0  0  0  0  0  0  0  0  0
   11.4990   11.4970   25.1550 H   0  0  0  0  0  0  0  0  0  0  0  0
   12.5750   13.5500   25.1480 H   0  0  0  0  0  0  0  0  0  0  0  0
   11.0810   14.4830   25.3040 H   0  0  0  0  0  0  0  0  0  0  0  0
   12.6050   16.3160   22.2150 H   0  0  0  0  0  0  0  0  0  0  0  0
   13.3560   14.8610   21.8210 H   0  0  0  0  0  0  0  0  0  0  0  0
   13.8020   16.2980   20.8980 H   0  0  0  0  0  0  0  0  0  0  0  0
   11.5230   14.8440   18.4420 H   0  0  0  0  0  0  0  0  0  0  0  0
   13.1860   15.2100   18.8500 H   0  0  0  0  0  0  0  0  0  0  0  0
   12.4630   13.6960   19.4200 H   0  0  0  0  0  0  0  0  0  0  0  0
   10.9710   17.4570   20.9190 H   0  0  0  0  0  0  0  0  0  0  0  0
    9.8410   16.3200   20.2150 H   0  0  0  0  0  0  0  0  0  0  0  0
   11.0470   17.0330   19.1780 H   0  0  0  0  0  0  0  0  0  0  0  0
   10.6510   12.9510   21.8320 H   0  0  0  0  0  0  0  0  0  0  0  0
   12.0240   12.0480   22.5410 H   0  0  0  0  0  0  0  0  0  0  0  0
  1  2  1  0
  2  3  1  0
  3  4  2  0
  3  5  1  0
  5  6  2  0
  6  7  1  0
  7  8  2  0
  8  9  1  0
  9 10  2  0
 10 11  1  0
  8 12  1  0
 12 13  1  0
 12 14  1  0
 14 15  1  0
 15 16  1  0
 16 17  1  0
 17 18  1  0
 18 19  1  0
 19 20  2  0
 19 21  1  0
 21 22  1  0
 22 23  1  0
 22 24  1  0
 22 25  1  0
 18 26  1  0
 15 27  1  1
 10  5  1  0
 26 15  1  0
 27  7  1  0
  1 28  1  0
  1 29  1  0
  1 30  1  0
  6 31  1  0
  9 32  1  0
 12 33  1  6
 13 34  1  0
 13 35  1  0
 14 36  1  0
 14 37  1  0
 16 38  1  0
 16 39  1  0
 17 40  1  0
 17 41  1  0
 23 42  1  0
 23 43  1  0
 23 44  1  0
 24 45  1  0
 24 46  1  0
 24 47  1  0
 25 48  1  0
 25 49  1  0
 25 50  1  0
 26 51  1  0
 26 52  1  0
A    1
 C1 
A    2
 O1 
A    3
 C2 
A    4
 O2 
A    5
 C3 
A    6
 C4 
A    7
 C5 
A    8
 C6 
A    9
 C7 
A   10
 C8 
A   11
 F1 
A   12
 C9 
A   13
 N1 
A   14
 C10
A   15
 C11
A   16
 C12
A   17
 C13
A   18
 N2 
A   19
 C14
A   20
 O3 
A   21
 O4 
A   22
 C15
A   23
 C16
A   24
 C17
A   25
 C18
A   26
 C19
A   27
 O5 
A   28
 H1 
A   29
 H2 
A   30
 H3 
A   31
 H4 
A   32
 H5 
A   33
 H6 
A   34
 H7 
A   35
 H8 
A   36
 H9 
A   37
 H10
A   38
 H11
A   39
 H12
A   40
 H13
A   41
 H14
A   42
 H15
A   43
 H16
A   44
 H17
A   45
 H18
A   46
 H19
A   47
 H20
A   48
 H21
A   49
 H22
A   50
 H23
A   51
 H24
A   52
 H25
M  END
>  <ref_pdb>  (197) 
x0451_0A

>  <ref_mols>  (197) 
x0451_0A,x0554_0A,x0556_0A,x0566_0A,x0310_0A,x0416_0A

>  <original SMILES>  (197) 
COC(=O)c1cc2c(cc1F)[C@H](N)C[C@]1(CCN(C(=O)OC(C)(C)C)C1)O2

>  <rationale>  (197) 
info info set:ROCS-BB-1RB;Warhead nanÅ to Cys110:SG; hbond:S87+G127; hydroph_interaction:Y89+Y90; 

>  <∆∆G>  (197) 
-7.523252

>  <comRMSD>  (197) 
0.818309

>  <ROCS_TanimotoCombo>  (197) 
0.524

>  <ROCS_ShapeTanimoto>  (197) 
0.39

>  <ROCS_ColorTanimoto>  (197) 
0.134

>  <distance>  (197) 
nan

$$$$
Z1491272215
     RDKit          3D

 35 36  0  0  0  0  0  0  0  0999 V2000
   10.4340    9.5450   22.9040 C   0  0  0  0  0  0  0  0  0  0  0  0
    9.4560   10.1830   23.8430 C   0  0  0  0  0  0  0  0  0  0  0  0
    8.3430    9.4290   24.2200 C   0  0  0  0  0  0  0  0  0  0  0  0
    7.3840    9.9510   25.0930 C   0  0  0  0  0  0  0  0  0  0  0  0
    7.5320   11.2250   25.5910 C   0  0  0  0  0  0  0  0  0  0  0  0
    6.6070   11.7180   26.4270 F   0  0  0  0  0  0  0  0  0  0  0  0
    8.6180   12.0020   25.2420 C   0  0  0  0  0  0  0  0  0  0  0  0
    9.5860   11.4890   24.3700 C   0  0  0  0  0  0  0  0  0  0  0  0
   10.9520   12.5740   23.9950 S   0  0  0  0  0  6  0  0  0  0  0  0
   12.1470   11.7770   23.8560 O   0  0  0  0  0  0  0  0  0  0  0  0
   10.9040   13.6880   24.9190 O   0  0  0  0  0  0  0  0  0  0  0  0
   10.5250   13.2210   22.5050 N   0  0  0  0  0  0  0  0  0  0  0  0
    9.2580   13.9910   22.5210 C   0  0  0  0  0  0  0  0  0  0  0  0
    9.3750   15.0150   21.4030 C   0  0  0  0  0  0  0  0  0  0  0  0
   10.7160   14.7470   20.7420 C   0  0  1  0  0  0  0  0  0  0  0  0
   11.3260   16.0510   20.3530 C   0  0  0  0  0  0  0  0  0  0  0  0
   10.3310   17.1070   20.5070 N   0  0  0  0  0  0  0  0  0  0  0  0
   11.5320   14.0490   21.8170 C   0  0  0  0  0  0  0  0  0  0  0  0
   11.0780    8.8530   23.4470 H   0  0  0  0  0  0  0  0  0  0  0  0
   11.0690   10.3000   22.4430 H   0  0  0  0  0  0  0  0  0  0  0  0
    9.9300    9.0230   22.0880 H   0  0  0  0  0  0  0  0  0  0  0  0
    8.2170    8.4220   23.8330 H   0  0  0  0  0  0  0  0  0  0  0  0
    6.5170    9.3750   25.3930 H   0  0  0  0  0  0  0  0  0  0  0  0
    8.6980   13.0020   25.6550 H   0  0  0  0  0  0  0  0  0  0  0  0
    9.1930   14.4950   23.4910 H   0  0  0  0  0  0  0  0  0  0  0  0
    8.3640   13.3730   22.4110 H   0  0  0  0  0  0  0  0  0  0  0  0
    9.3040   16.0250   21.8130 H   0  0  0  0  0  0  0  0  0  0  0  0
    8.5710   14.9140   20.6830 H   0  0  0  0  0  0  0  0  0  0  0  0
   10.5950   14.0900   19.8700 H   0  0  0  0  0  0  0  0  0  0  0  0
   12.1950   16.2670   20.9860 H   0  0  0  0  0  0  0  0  0  0  0  0
   11.6690   16.0060   19.3130 H   0  0  0  0  0  0  0  0  0  0  0  0
   10.5070   17.6370   21.3600 H   0  0  0  0  0  0  0  0  0  0  0  0
   10.4030   17.7690   19.7340 H   0  0  0  0  0  0  0  0  0  0  0  0
   12.3250   13.4380   21.3800 H   0  0  0  0  0  0  0  0  0  0  0  0
   11.9780   14.7680   22.5110 H   0  0  0  0  0  0  0  0  0  0  0  0
  1  2  1  0
  2  3  2  0
  3  4  1  0
  4  5  2  0
  5  6  1  0
  5  7  1  0
  7  8  2  0
  8  9  1  0
  9 10  2  0
  9 11  2  0
  9 12  1  0
 12 13  1  0
 13 14  1  0
 14 15  1  0
 15 16  1  0
 16 17  1  0
 15 18  1  0
  8  2  1  0
 18 12  1  0
  1 19  1  0
  1 20  1  0
  1 21  1  0
  3 22  1  0
  4 23  1  0
  7 24  1  0
 13 25  1  0
 13 26  1  0
 14 27  1  0
 14 28  1  0
 15 29  1  6
 16 30  1  0
 16 31  1  0
 17 32  1  0
 17 33  1  0
 18 34  1  0
 18 35  1  0
A    1
 C1 
A    2
 C2 
A    3
 C3 
A    4
 C4 
A    5
 C5 
A    6
 F1 
A    7
 C6 
A    8
 C7 
A    9
 S1 
A   10
 O1 
A   11
 O2 
A   12
 N1 
A   13
 C8 
A   14
 C9 
A   15
 C10
A   16
 C11
A   17
 N2 
A   18
 C12
A   19
 H1 
A   20
 H2 
A   21
 H3 
A   22
 H4 
A   23
 H5 
A   24
 H6 
A   25
 H7 
A   26
 H8 
A   27
 H9 
A   28
 H10
A   29
 H11
A   30
 H12
A   31
 H13
A   32
 H14
A   33
 H15
A   34
 H16
A   35
 H17
M  END
>  <ref_pdb>  (198) 
x0451_0A

>  <ref_mols>  (198) 
x0451_0A,x0554_0A,x0556_0A,x0566_0A,x0310_0A,x0416_0A

>  <original SMILES>  (198) 
Cc1ccc(F)cc1S(=O)(=O)N1CC[C@@H](CN)C1

>  <rationale>  (198) 
info info set:ROCS-shape_Q1;Warhead nanÅ to Cys110:SG; hbond:S87; hydroph_interaction:A110+V124; 

>  <∆∆G>  (198) 
-7.520359

>  <comRMSD>  (198) 
0.617531

>  <ROCS_TanimotoCombo>  (198) 
0.439

>  <ROCS_ShapeTanimoto>  (198) 
0.29

>  <ROCS_ColorTanimoto>  (198) 
0.148

>  <distance>  (198) 
nan

$$$$
EN300_37355673
     RDKit          3D

 34 35  0  0  0  0  0  0  0  0999 V2000
   11.9170   16.0550   21.7440 C   0  0  0  0  0  0  0  0  0  0  0  0
   11.6190   14.7910   21.0780 C   0  0  0  0  0  0  0  0  0  0  0  0
   10.3180   14.5460   20.6910 C   0  0  0  0  0  0  0  0  0  0  0  0
   12.4070   14.6560   19.7700 C   0  0  0  0  0  0  0  0  0  0  0  0
   12.0670   13.8790   22.1050 O   0  0  0  0  0  0  0  0  0  0  0  0
   11.3120   13.7480   23.2160 C   0  0  0  0  0  0  0  0  0  0  0  0
   11.4000   14.4140   24.2320 O   0  0  0  0  0  0  0  0  0  0  0  0
   10.4270   12.7020   22.9200 N   0  0  0  0  0  0  0  0  0  0  0  0
    9.3750   12.2400   23.7050 C   0  0  0  0  0  0  0  0  0  0  0  0
    8.6470   13.0060   24.2260 N   0  0  0  0  0  0  0  0  0  0  0  0
    7.6530   12.5210   24.9720 C   0  0  0  0  0  0  0  0  0  0  0  0
    6.8290   13.4380   25.5390 O   0  0  0  0  0  0  0  0  0  0  0  0
    7.3890   11.2610   25.2100 N   0  0  0  0  0  0  0  0  0  0  0  0
    8.2240   10.4620   24.6010 C   0  0  0  0  0  0  0  0  0  0  0  0
    8.0450    8.9570   24.7650 C   0  0  0  0  0  0  0  0  0  0  0  0
    8.8400    8.0220   24.1630 C   0  0  0  0  0  0  0  0  0  0  0  0
    9.8810    8.4270   23.3710 C   0  0  0  0  0  0  0  0  0  0  0  0
   10.1090    9.9230   23.1860 C   0  0  0  0  0  0  0  0  0  0  0  0
    9.2700   10.8670   23.8040 C   0  0  0  0  0  0  0  0  0  0  0  0
   12.9880   16.2190   21.6380 H   0  0  0  0  0  0  0  0  0  0  0  0
   11.3580   16.8810   21.2930 H   0  0  0  0  0  0  0  0  0  0  0  0
   11.6400   16.0140   22.7970 H   0  0  0  0  0  0  0  0  0  0  0  0
    9.6610   15.3790   20.4440 H   0  0  0  0  0  0  0  0  0  0  0  0
    9.8090   13.9770   21.4670 H   0  0  0  0  0  0  0  0  0  0  0  0
   10.3600   13.9120   19.8030 H   0  0  0  0  0  0  0  0  0  0  0  0
   11.8370   15.0150   18.9130 H   0  0  0  0  0  0  0  0  0  0  0  0
   12.6460   13.6090   19.5600 H   0  0  0  0  0  0  0  0  0  0  0  0
   13.3210   15.2350   19.8090 H   0  0  0  0  0  0  0  0  0  0  0  0
   10.6710   12.2260   22.0520 H   0  0  0  0  0  0  0  0  0  0  0  0
    6.0450   13.2670   24.9740 H   0  0  0  0  0  0  0  0  0  0  0  0
    7.2260    8.6530   25.4040 H   0  0  0  0  0  0  0  0  0  0  0  0
    8.5650    6.9850   24.3840 H   0  0  0  0  0  0  0  0  0  0  0  0
   10.5330    7.7240   22.8890 H   0  0  0  0  0  0  0  0  0  0  0  0
   10.9330   10.2630   22.5610 H   0  0  0  0  0  0  0  0  0  0  0  0
  1  2  1  0
  2  3  1  0
  2  4  1  0
  2  5  1  0
  5  6  1  0
  6  7  2  0
  6  8  1  0
  8  9  1  0
  9 10  2  0
 10 11  1  0
 11 12  1  0
 11 13  2  0
 13 14  1  0
 14 15  2  0
 15 16  1  0
 16 17  2  0
 17 18  1  0
 18 19  2  0
 19  9  1  0
 19 14  1  0
  1 20  1  0
  1 21  1  0
  1 22  1  0
  3 23  1  0
  3 24  1  0
  3 25  1  0
  4 26  1  0
  4 27  1  0
  4 28  1  0
  8 29  1  0
 12 30  1  0
 15 31  1  0
 16 32  1  0
 17 33  1  0
 18 34  1  0
A    1
 C1 
A    2
 C2 
A    3
 C3 
A    4
 C4 
A    5
 O1 
A    6
 C5 
A    7
 O2 
A    8
 N1 
A    9
 C6 
A   10
 N2 
A   11
 C7 
A   12
 O3 
A   13
 N3 
A   14
 C8 
A   15
 C9 
A   16
 C10
A   17
 C11
A   18
 C12
A   19
 C13
A   20
 H1 
A   21
 H2 
A   22
 H3 
A   23
 H4 
A   24
 H5 
A   25
 H6 
A   26
 H7 
A   27
 H8 
A   28
 H9 
A   29
 H10
A   30
 H11
A   31
 H12
A   32
 H13
A   33
 H14
A   34
 H15
M  END
>  <ref_pdb>  (199) 
x0451_0A

>  <ref_mols>  (199) 
x0451_0A,x0554_0A,x0556_0A,x0566_0A,x0310_0A,x0416_0A

>  <original SMILES>  (199) 
CC(C)(C)OC(=O)Nc1nc(O)nc2ccccc12

>  <rationale>  (199) 
info info set:ROCS-BB-1RB;Warhead nanÅ to Cys110:SG; hbond:S125; hydroph_interaction:Y89+Y90+V124+D109; 

>  <∆∆G>  (199) 
-7.51082

>  <comRMSD>  (199) 
0.542436

>  <ROCS_TanimotoCombo>  (199) 
0.527

>  <ROCS_ShapeTanimoto>  (199) 
0.359

>  <ROCS_ColorTanimoto>  (199) 
0.168

>  <distance>  (199) 
nan

$$$$
EN300_27101483
     RDKit          3D

 45 46  0  0  0  0  0  0  0  0999 V2000
   13.8320   12.6280   26.6870 C   0  0  0  0  0  0  0  0  0  0  0  0
   14.1760   12.1510   25.3200 C   0  0  0  0  0  0  0  0  0  0  0  0
   15.1110   12.8300   24.6590 C   0  0  0  0  0  0  0  0  0  0  0  0
   14.7800   10.8280   25.3840 C   0  0  0  0  0  0  0  0  0  0  0  0
   12.9340   12.2360   24.5730 O   0  0  0  0  0  0  0  0  0  0  0  0
   12.7070   13.3850   23.8340 C   0  0  0  0  0  0  0  0  0  0  0  0
   13.5280   14.2510   23.7160 O   0  0  0  0  0  0  0  0  0  0  0  0
   11.4680   13.4550   23.2570 N   0  0  0  0  0  0  0  0  0  0  0  0
   11.0970   14.7160   22.8090 C   0  0  0  0  0  0  0  0  0  0  0  0
   11.4430   15.7750   23.3200 O   0  0  0  0  0  0  0  0  0  0  0  0
   10.2830   14.6730   21.7060 O   0  0  0  0  0  0  0  0  0  0  0  0
   10.7270   15.4140   20.5430 C   0  0  0  0  0  0  0  0  0  0  0  0
   10.4700   14.7780   19.2390 C   0  0  0  0  0  0  0  0  0  0  0  0
   12.2390   15.3670   20.7220 C   0  0  0  0  0  0  0  0  0  0  0  0
   10.1280   16.8180   20.4990 C   0  0  0  0  0  0  0  0  0  0  0  0
   10.4860   12.4780   23.6430 C   0  0  0  0  0  0  0  0  0  0  0  0
   10.6410   11.0390   23.1910 C   0  0  0  0  0  0  0  0  0  0  0  0
    9.5930   10.0490   23.6170 C   0  0  0  0  0  0  0  0  0  0  0  0
    8.5330   10.4720   24.4010 N   0  0  0  0  0  0  0  0  0  0  0  0
    7.5100    9.7400   24.8780 N   0  0  0  0  0  0  0  0  0  0  0  0
    6.7320   10.5330   25.5770 N   0  0  0  0  0  0  0  0  0  0  0  0
    7.2150   11.8040   25.5790 N   0  0  0  0  0  0  0  0  0  0  0  0
    8.3100   11.7720   24.8650 C   0  0  0  0  0  0  0  0  0  0  0  0
    9.2910   12.8480   24.5010 C   0  0  0  0  0  0  0  0  0  0  0  0
   13.6450   11.7870   27.3520 H   0  0  0  0  0  0  0  0  0  0  0  0
   14.6490   13.2240   27.1040 H   0  0  0  0  0  0  0  0  0  0  0  0
   12.9430   13.2660   26.6670 H   0  0  0  0  0  0  0  0  0  0  0  0
   15.9760   13.1870   25.2090 H   0  0  0  0  0  0  0  0  0  0  0  0
   15.4650   12.2050   23.8430 H   0  0  0  0  0  0  0  0  0  0  0  0
   14.6490   13.7130   24.2310 H   0  0  0  0  0  0  0  0  0  0  0  0
   14.0620   10.0340   25.1650 H   0  0  0  0  0  0  0  0  0  0  0  0
   15.6180   10.7440   24.7110 H   0  0  0  0  0  0  0  0  0  0  0  0
   15.1870   10.6980   26.3750 H   0  0  0  0  0  0  0  0  0  0  0  0
    9.4530   15.0120   18.9220 H   0  0  0  0  0  0  0  0  0  0  0  0
   11.1490   15.1930   18.4900 H   0  0  0  0  0  0  0  0  0  0  0  0
   10.6070   13.7040   19.3200 H   0  0  0  0  0  0  0  0  0  0  0  0
   12.5470   14.4490   21.2330 H   0  0  0  0  0  0  0  0  0  0  0  0
   12.7440   15.4060   19.7510 H   0  0  0  0  0  0  0  0  0  0  0  0
   12.6020   16.2200   21.3040 H   0  0  0  0  0  0  0  0  0  0  0  0
   10.6840   17.5090   21.1360 H   0  0  0  0  0  0  0  0  0  0  0  0
   10.1280   17.2140   19.4760 H   0  0  0  0  0  0  0  0  0  0  0  0
    9.0880   16.8340   20.8380 H   0  0  0  0  0  0  0  0  0  0  0  0
   11.5040   10.8390   22.5840 H   0  0  0  0  0  0  0  0  0  0  0  0
    9.6050    8.9840   23.3430 H   0  0  0  0  0  0  0  0  0  0  0  0
    9.1060   13.8640   24.8700 H   0  0  0  0  0  0  0  0  0  0  0  0
  1  2  1  0
  2  3  1  0
  2  4  1  0
  2  5  1  0
  5  6  1  0
  6  7  2  0
  6  8  1  0
  8  9  1  0
  9 10  2  0
  9 11  1  0
 11 12  1  0
 12 13  1  0
 12 14  1  0
 12 15  1  0
  8 16  1  0
 16 17  1  0
 17 18  2  0
 18 19  1  0
 19 20  1  0
 20 21  2  0
 21 22  1  0
 22 23  2  0
 23 24  1  0
 24 16  2  0
 23 19  1  0
  1 25  1  0
  1 26  1  0
  1 27  1  0
  3 28  1  0
  3 29  1  0
  3 30  1  0
  4 31  1  0
  4 32  1  0
  4 33  1  0
 13 34  1  0
 13 35  1  0
 13 36  1  0
 14 37  1  0
 14 38  1  0
 14 39  1  0
 15 40  1  0
 15 41  1  0
 15 42  1  0
 17 43  1  0
 18 44  1  0
 24 45  1  0
A    1
 C1 
A    2
 C2 
A    3
 C3 
A    4
 C4 
A    5
 O1 
A    6
 C5 
A    7
 O2 
A    8
 N1 
A    9
 C6 
A   10
 O3 
A   11
 O4 
A   12
 C7 
A   13
 C8 
A   14
 C9 
A   15
 C10
A   16
 C11
A   17
 C12
A   18
 C13
A   19
 N2 
A   20
 N3 
A   21
 N4 
A   22
 N5 
A   23
 C14
A   24
 C15
A   25
 H1 
A   26
 H2 
A   27
 H3 
A   28
 H4 
A   29
 H5 
A   30
 H6 
A   31
 H7 
A   32
 H8 
A   33
 H9 
A   34
 H10
A   35
 H11
A   36
 H12
A   37
 H13
A   38
 H14
A   39
 H15
A   40
 H16
A   41
 H17
A   42
 H18
A   43
 H19
A   44
 H20
A   45
 H21
M  END
>  <ref_pdb>  (200) 
x0451_0A

>  <ref_mols>  (200) 
x0451_0A,x0554_0A,x0556_0A,x0566_0A,x0310_0A,x0416_0A

>  <original SMILES>  (200) 
CC(C)(C)OC(=O)N(C(=O)OC(C)(C)C)c1ccn2nnnc2c1

>  <rationale>  (200) 
info info set:ROCS-BB-1RB;Warhead nanÅ to Cys110:SG; hbond:S87; hydroph_interaction:A110+L22; 

>  <∆∆G>  (200) 
-7.49793

>  <comRMSD>  (200) 
0.629431

>  <ROCS_TanimotoCombo>  (200) 
0.515

>  <ROCS_ShapeTanimoto>  (200) 
0.349

>  <ROCS_ColorTanimoto>  (200) 
0.166

>  <distance>  (200) 
nan

$$$$
