ver_1.2
     RDKit          2D

  0  0  0  0  0  0  0  0  0  0999 V2000
M  END
>  <ref_url>  (1) 
https://pubs.acs.org/doi/10.1021/acs.jcim.3c00276?fig=tgr1&ref=pdf

>  <submitter_name>  (1) 
Steph Wills

>  <submitter_institution>  (1) 
University of Oxford

>  <submitter_email>  (1) 
stephanie.wills@balliol.ox.ac.uk

>  <generation_date>  (1) 
2023-11-27

>  <method>  (1) 
FragNetv2_pt2

>  <original SMILES>  (1) 
SMILES

>  <original_name>  (1) 
a name

>  <ref_mols>  (1) 
ref fragments

>  <ref_pdb>  (1) 
ref pdb

$$$$
x0416_0A-x0310_0A_113738_B1X
     RDKit          3D

 13 13  0  0  0  0  0  0  0  0999 V2000
   10.1830    9.6030   22.8080 C   0  0  0  0  0  0  0  0  0  0  0  0
    9.2310   10.4470   23.6110 C   0  0  0  0  0  0  0  0  0  0  0  0
    8.2760    9.6720   24.4610 C   0  0  0  0  0  0  0  0  0  0  0  0
    7.3650   10.3110   25.2210 N   0  0  0  0  0  0  0  0  0  0  0  0
    7.2900   11.6830   25.2380 C   0  0  0  0  0  0  0  0  0  0  0  0
    8.1480   12.4580   24.4820 C   0  0  0  0  0  0  0  0  0  0  0  0
    9.1230   11.8520   23.6650 C   0  0  0  0  0  0  0  0  0  0  0  0
   10.0130   12.6130   22.9000 N   0  0  0  0  0  0  0  0  0  0  0  0
   10.7830   13.5450   23.5240 C   0  0  0  0  0  0  0  0  0  0  0  0
   10.4310   14.0730   24.8020 O   0  0  0  0  0  0  0  0  0  0  0  0
   12.0450   14.0110   22.8290 C   0  0  0  0  0  0  0  0  0  0  0  0
   13.0510   14.0950   24.0100 C   0  0  0  0  0  0  0  0  0  0  0  0
   12.2630   15.2590   22.1850 C   0  0  0  0  0  0  0  0  0  0  0  0
  1  2  1  0
  2  3  2  0
  3  4  1  0
  4  5  2  0
  5  6  1  0
  6  7  2  0
  7  8  1  0
  8  9  1  0
  9 10  2  0
  9 11  1  0
 11 12  1  0
 11 13  1  0
  7  2  1  0
A    1
 C1 
A    2
 C2 
A    3
 C3 
A    4
 N1 
A    5
 C4 
A    6
 C5 
A    7
 C6 
A    8
 N2 
A    9
 C7 
A   10
 O1 
A   11
 C8 
A   12
 C9 
A   13
 C10
M  END
>  <similarity>  (2) 
1.0

>  <smiles>  (2) 
Cc1cnccc1NC(=O)C(C)C

>  <cmpd_id>  (2) 
CHEMSPACE-BB:CSMB00011908591,ENAMINE:Z1148751120

>  <used_subnode>  (2) 
c1ccncc1

>  <used_synthon>  (2) 
CC(C)C(=O)N[Xe]

>  <ref_subnode>  (2) 
c1ccncc1

>  <ref_synthon>  (2) 
N#CCC(=O)N[Xe]

>  <fragmentA>  (2) 
x0416_0A

>  <fragmentB>  (2) 
x0310_0A

>  <HA>  (2) 
13

>  <HBD>  (2) 
1

>  <HBA>  (2) 
2

>  <MW>  (2) 
178.110613068

>  <TPSA>  (2) 
41.99

>  <LogP>  (2) 
1.9845199999999998

>  <RBs>  (2) 
2

>  <G_bound>  (2) 
-11.055257591875769

>  <G_unbound>  (2) 
-0.3804170515553179

>  <deltaG>  (2) 
-10.674840540320451

>  <comRMSD>  (2) 
0.9559892738991949

>  <substructure_overlap_check>  (2) 
True

>  <energy_ratio_check>  (2) 
True

>  <const_energy/unconst_energy>  (2) 
3.8884104270182362

>  <sucos>  (2) 
0.509967273568195

>  <interactions>  (2) 
HBDonor_SER-125,Hydrophobic_TYR-90,Hydrophobic_VAL-124,Hydrophobic_TYR-89,Hydrophobic_PRO-107,Hydrophobic_HIS-21

>  <total_num_ints>  (2) 
6

>  <total_num_ints_nonhyd>  (2) 
1

>  <num_uniq_frag_ints>  (2) 
2

>  <num_repl_uniq_ints>  (2) 
2

>  <num_uniq_ints_lost>  (2) 
0

>  <num_new_uniq_ints>  (2) 
4

>  <int_check>  (2) 
True

>  <tversky>  (2) 
0.3425199150991171

>  <mean_vol_overlap>  (2) 
0.6129392732592817

>  <rotat_bonds>  (2) 
2

>  <ref_url>  (2) 
https://pubs.acs.org/doi/10.1021/acs.jcim.3c00276?fig=tgr1&ref=pdf

>  <submitter_name>  (2) 
Steph Wills

>  <submitter_institution>  (2) 
University of Oxford

>  <submitter_email>  (2) 
stephanie.wills@balliol.ox.ac.uk

>  <generation_date>  (2) 
2023-11-27

>  <method>  (2) 
FragNetv2_pt2

>  <original SMILES>  (2) 
Cc1cnccc1NC(=O)C(C)C

>  <original_name>  (2) 
x0416_0A-x0310_0A_113738_B1X

>  <ref_mols>  (2) 
x0416_0A,x0310_0A

>  <ref_pdb>  (2) 
x0310_0A

>  <rationale>  (2) 
FragNet: 1 round bioisosteric merging incl c1ccncc1 and CC(C)C(=O)N[Xe] replacing N#CCC(=O)N[Xe]

$$$$
x0416_0A-x0451_0A_9881_B1X
     RDKit          3D

 17 19  0  0  0  0  0  0  0  0999 V2000
    4.6020   12.1280   26.2250 O   0  0  0  0  0  0  0  0  0  0  0  0
    4.9810   11.2640   27.0120 C   0  0  0  0  0  0  0  0  0  0  0  0
    6.0030   10.3180   26.7570 N   0  0  0  0  0  0  0  0  0  0  0  0
    6.9710   10.8680   25.8760 C   0  0  0  0  0  0  0  0  0  0  0  0
    7.1380   12.3850   25.9420 C   0  0  0  0  0  0  0  0  0  0  0  0
    8.2070   12.9510   24.9760 C   0  0  0  0  0  0  0  0  0  0  0  0
    8.8890   11.9610   24.1560 C   0  0  0  0  0  0  0  0  0  0  0  0
    9.8790   12.0400   23.1990 C   0  0  0  0  0  0  0  0  0  0  0  0
   10.1400   10.7450   22.7350 C   0  0  0  0  0  0  0  0  0  0  0  0
    9.3340    9.9000   23.3960 N   0  0  0  0  0  0  0  0  0  0  0  0
    8.5760   10.6100   24.2530 C   0  0  0  0  0  0  0  0  0  0  0  0
    7.6790   10.0820   25.0520 C   0  0  0  0  0  0  0  0  0  0  0  0
    4.4430   11.1390   28.4110 C   0  0  1  0  0  0  0  0  0  0  0  0
    5.4810   11.5390   29.2490 C   0  0  0  0  0  0  0  0  0  0  0  0
    5.3050   13.0250   29.5860 C   0  0  0  0  0  0  0  0  0  0  0  0
    3.9200   13.3330   29.0340 C   0  0  0  0  0  0  0  0  0  0  0  0
    3.3730   12.0730   28.5980 O   0  0  0  0  0  0  0  0  0  0  0  0
  1  2  2  0
  2  3  1  0
  3  4  1  0
  4  5  2  0
  5  6  1  0
  6  7  2  0
  7  8  1  0
  8  9  2  0
  9 10  1  0
 10 11  1  0
 11 12  2  0
 13  2  1  6
 13 14  1  0
 14 15  1  0
 15 16  1  0
 16 17  1  0
 12  4  1  0
 17 13  1  0
 11  7  1  0
A    1
 O1 
A    2
 C1 
A    3
 N1 
A    4
 C2 
A    5
 C3 
A    6
 C4 
A    7
 C5 
A    8
 C6 
A    9
 C7 
A   10
 N2 
A   11
 C8 
A   12
 C9 
A   13
 C10
A   14
 C11
A   15
 C12
A   16
 C13
A   17
 O2 
M  END
>  <similarity>  (3) 
1.0

>  <smiles>  (3) 
O=C(Nc1ccc2cc[nH]c2c1)C1CCCO1

>  <cmpd_id>  (3) 
ENAMINE:Z1928816643

>  <used_subnode>  (3) 
C1CCOC1

>  <used_synthon>  (3) 
[Xe]c1ccc2cc[nH]c2c1

>  <ref_subnode>  (3) 
C1CCOC1

>  <ref_synthon>  (3) 
[Xe]c1c[nH]c2ccccc12

>  <fragmentA>  (3) 
x0416_0A

>  <fragmentB>  (3) 
x0451_0A

>  <HA>  (3) 
17

>  <HBD>  (3) 
2

>  <HBA>  (3) 
2

>  <MW>  (3) 
230.105527688

>  <TPSA>  (3) 
54.120000000000005

>  <LogP>  (3) 
2.2854

>  <RBs>  (3) 
2

>  <G_bound>  (3) 
-5.195199869222964

>  <G_unbound>  (3) 
0.4003613260792843

>  <deltaG>  (3) 
-5.595561195302249

>  <comRMSD>  (3) 
0.7272710672871064

>  <substructure_overlap_check>  (3) 
True

>  <energy_ratio_check>  (3) 
True

>  <const_energy/unconst_energy>  (3) 
2.160562416990557

>  <sucos>  (3) 
0.501558356907092

>  <interactions>  (3) 
HBDonor_SER-105,Hydrophobic_PRO-107

>  <total_num_ints>  (3) 
2

>  <total_num_ints_nonhyd>  (3) 
1

>  <num_uniq_frag_ints>  (3) 
1

>  <num_repl_uniq_ints>  (3) 
1

>  <num_uniq_ints_lost>  (3) 
0

>  <num_new_uniq_ints>  (3) 
1

>  <int_check>  (3) 
True

>  <tversky>  (3) 
0.3426093412156874

>  <mean_vol_overlap>  (3) 
0.5843878001368596

>  <rotat_bonds>  (3) 
2

>  <ref_url>  (3) 
https://pubs.acs.org/doi/10.1021/acs.jcim.3c00276?fig=tgr1&ref=pdf

>  <submitter_name>  (3) 
Steph Wills

>  <submitter_institution>  (3) 
University of Oxford

>  <submitter_email>  (3) 
stephanie.wills@balliol.ox.ac.uk

>  <generation_date>  (3) 
2023-11-27

>  <method>  (3) 
FragNetv2_pt2

>  <original SMILES>  (3) 
O=C(Nc1ccc2cc[nH]c2c1)C1CCCO1

>  <original_name>  (3) 
x0416_0A-x0451_0A_9881_B1X

>  <ref_mols>  (3) 
x0416_0A,x0451_0A

>  <ref_pdb>  (3) 
x0310_0A

>  <rationale>  (3) 
FragNet: 1 round bioisosteric merging incl C1CCOC1 and [Xe]c1ccc2cc[nH]c2c1 replacing [Xe]c1c[nH]c2ccccc12

$$$$
x0310_0A-x0416_0A_4523_PXX
     RDKit          3D

 17 19  0  0  0  0  0  0  0  0999 V2000
    7.0900   14.5220   24.1360 O   0  0  0  0  0  0  0  0  0  0  0  0
    7.1290   13.5940   24.9390 C   0  0  0  0  0  0  0  0  0  0  0  0
    6.5830   13.6950   26.2790 N   0  0  0  0  0  0  0  0  0  0  0  0
    5.1890   13.3240   26.3800 C   0  0  0  0  0  0  0  0  0  0  0  0
    5.0300   11.9560   27.0620 C   0  0  1  0  0  0  0  0  0  0  0  0
    5.9670   11.8510   28.2360 C   0  0  0  0  0  0  0  0  0  0  0  0
    5.3610   12.5480   29.2540 C   0  0  0  0  0  0  0  0  0  0  0  0
    4.0250   12.4300   28.8970 C   0  0  0  0  0  0  0  0  0  0  0  0
    3.9220   11.9130   27.5590 O   0  0  0  0  0  0  0  0  0  0  0  0
    7.7070   12.3170   24.6570 C   0  0  0  0  0  0  0  0  0  0  0  0
    8.8390   11.9510   23.8050 C   0  0  0  0  0  0  0  0  0  0  0  0
    9.0330   10.5040   23.8440 C   0  0  0  0  0  0  0  0  0  0  0  0
   10.1240    9.9160   23.0580 C   0  0  0  0  0  0  0  0  0  0  0  0
   10.5010    8.6320   23.3370 C   0  0  0  0  0  0  0  0  0  0  0  0
   10.1480    9.0340   21.9310 C   0  0  0  0  0  0  0  0  0  0  0  0
    8.0630   10.0350   24.6830 N   0  0  0  0  0  0  0  0  0  0  0  0
    7.2940   11.0780   25.1560 N   0  0  0  0  0  0  0  0  0  0  0  0
  1  2  2  0
  2  3  1  0
  3  4  1  0
  5  4  1  1
  5  6  1  0
  6  7  1  0
  7  8  1  0
  8  9  1  0
  2 10  1  0
 10 11  1  0
 11 12  2  0
 12 13  1  0
 13 14  1  0
 14 15  1  0
 12 16  1  0
 16 17  1  0
  9  5  1  0
 17 10  2  0
 15 13  1  0
A    1
 O1 
A    2
 C1 
A    3
 N1 
A    4
 C2 
A    5
 C3 
A    6
 C4 
A    7
 C5 
A    8
 C6 
A    9
 O2 
A   10
 C7 
A   11
 C8 
A   12
 C9 
A   13
 C10
A   14
 C11
A   15
 C12
A   16
 N2 
A   17
 N3 
M  END
>  <similarity>  (4) 
NA

>  <smiles>  (4) 
O=C(NCC1CCCO1)c1cc(C2CC2)[nH]n1

>  <cmpd_id>  (4) 
ENAMINE:Z2283382859,ENAMINE:Z332604684,ENAMINE:Z2643474569,MOLPORT:008-954-859

>  <used_subnode>  (4) 
NA

>  <used_synthon>  (4) 
NA

>  <ref_subnode>  (4) 
c1cn[nH]c1

>  <ref_synthon>  (4) 
[Xe]C1CCCO1

>  <fragmentA>  (4) 
x0310_0A

>  <fragmentB>  (4) 
x0416_0A

>  <HA>  (4) 
17

>  <HBD>  (4) 
2

>  <HBA>  (4) 
3

>  <MW>  (4) 
235.132076784

>  <TPSA>  (4) 
67.00999999999999

>  <LogP>  (4) 
1.1958999999999997

>  <RBs>  (4) 
4

>  <G_bound>  (4) 
-0.8629963352505043

>  <G_unbound>  (4) 
0.575698728751685

>  <deltaG>  (4) 
-1.4386950640021894

>  <comRMSD>  (4) 
0.5675397484570636

>  <substructure_overlap_check>  (4) 
True

>  <energy_ratio_check>  (4) 
True

>  <const_energy/unconst_energy>  (4) 
1.4333134842315258

>  <sucos>  (4) 
0.5021089369097027

>  <interactions>  (4) 
Hydrophobic_VAL-124,Hydrophobic_PRO-107,HBDonor_SER-105,Hydrophobic_ASP-109

>  <total_num_ints>  (4) 
4

>  <total_num_ints_nonhyd>  (4) 
1

>  <num_uniq_frag_ints>  (4) 
2

>  <num_repl_uniq_ints>  (4) 
2

>  <num_uniq_ints_lost>  (4) 
0

>  <num_new_uniq_ints>  (4) 
2

>  <int_check>  (4) 
True

>  <tversky>  (4) 
0.3097354397518004

>  <mean_vol_overlap>  (4) 
0.5722136761886789

>  <rotat_bonds>  (4) 
4

>  <ref_url>  (4) 
https://pubs.acs.org/doi/10.1021/acs.jcim.3c00276?fig=tgr1&ref=pdf

>  <submitter_name>  (4) 
Steph Wills

>  <submitter_institution>  (4) 
University of Oxford

>  <submitter_email>  (4) 
stephanie.wills@balliol.ox.ac.uk

>  <generation_date>  (4) 
2023-11-27

>  <method>  (4) 
FragNetv2_pt2

>  <original SMILES>  (4) 
O=C(NCC1CCCO1)c1cc(C2CC2)[nH]n1

>  <original_name>  (4) 
x0310_0A-x0416_0A_4523_PXX

>  <ref_mols>  (4) 
x0310_0A,x0416_0A

>  <ref_pdb>  (4) 
x0310_0A

>  <rationale>  (4) 
FragNet: perfect merge incl c1cn[nH]c1,[Xe]C1CCCO1

$$$$
x0416_0A-x0310_0A_151833_B1X
     RDKit          3D

 15 15  0  0  0  0  0  0  0  0999 V2000
   10.2260    9.6730   22.8430 C   0  0  0  0  0  0  0  0  0  0  0  0
    9.2200   10.4730   23.6260 C   0  0  0  0  0  0  0  0  0  0  0  0
    8.2990    9.6530   24.4930 C   0  0  0  0  0  0  0  0  0  0  0  0
    7.3380   10.2680   25.2520 N   0  0  0  0  0  0  0  0  0  0  0  0
    7.2160   11.6090   25.2210 C   0  0  0  0  0  0  0  0  0  0  0  0
    8.0430   12.3810   24.4390 C   0  0  0  0  0  0  0  0  0  0  0  0
    9.0590   11.8700   23.6260 C   0  0  0  0  0  0  0  0  0  0  0  0
    9.8970   12.6760   22.8510 N   0  0  0  0  0  0  0  0  0  0  0  0
   10.7370   13.5410   23.4770 C   0  0  0  0  0  0  0  0  0  0  0  0
   10.4130   14.2410   24.4270 O   0  0  0  0  0  0  0  0  0  0  0  0
   12.1450   13.5590   22.9940 C   0  0  2  0  0  0  0  0  0  0  0  0
   12.7280   12.7380   23.9000 C   0  0  0  0  0  0  0  0  0  0  0  0
   12.6870   14.8980   23.4320 C   0  0  0  0  0  0  0  0  0  0  0  0
   12.1790   15.9880   22.5790 C   0  0  0  0  0  0  0  0  0  0  0  0
   11.8120   17.0500   21.8640 N   0  0  0  0  0  0  0  0  0  0  0  0
  1  2  1  0
  2  3  2  0
  3  4  1  0
  4  5  2  0
  5  6  1  0
  6  7  2  0
  7  8  1  0
  8  9  1  0
  9 10  2  0
  9 11  1  0
 11 12  1  1
 11 13  1  0
 13 14  1  0
 14 15  3  0
  7  2  1  0
A    1
 C1 
A    2
 C2 
A    3
 C3 
A    4
 N1 
A    5
 C4 
A    6
 C5 
A    7
 C6 
A    8
 N2 
A    9
 C7 
A   10
 O1 
A   11
 C8 
A   12
 C9 
A   13
 C10
A   14
 C11
A   15
 N3 
M  END
>  <similarity>  (5) 
1.0

>  <smiles>  (5) 
Cc1cnccc1NC(=O)C(C)CC#N

>  <cmpd_id>  (5) 
ENAMINE:Z2628169618

>  <used_subnode>  (5) 
c1ccncc1

>  <used_synthon>  (5) 
CC(CC#N)C(=O)N[Xe]

>  <ref_subnode>  (5) 
c1ccncc1

>  <ref_synthon>  (5) 
N#CCC(=O)N[Xe]

>  <fragmentA>  (5) 
x0416_0A

>  <fragmentB>  (5) 
x0310_0A

>  <HA>  (5) 
15

>  <HBD>  (5) 
1

>  <HBA>  (5) 
3

>  <MW>  (5) 
203.105862036

>  <TPSA>  (5) 
65.78

>  <LogP>  (5) 
1.8782999999999999

>  <RBs>  (5) 
3

>  <G_bound>  (5) 
-7.141786174911664

>  <G_unbound>  (5) 
0.27504500053567427

>  <deltaG>  (5) 
-7.416831175447338

>  <comRMSD>  (5) 
0.8084722555577737

>  <substructure_overlap_check>  (5) 
True

>  <energy_ratio_check>  (5) 
True

>  <const_energy/unconst_energy>  (5) 
5.325262030287789

>  <sucos>  (5) 
0.5054132491599382

>  <interactions>  (5) 
Hydrophobic_CYS-110,HBDonor_SER-125,Hydrophobic_VAL-124,Hydrophobic_TYR-89,Hydrophobic_PRO-107,Hydrophobic_HIS-21

>  <total_num_ints>  (5) 
6

>  <total_num_ints_nonhyd>  (5) 
1

>  <num_uniq_frag_ints>  (5) 
2

>  <num_repl_uniq_ints>  (5) 
2

>  <num_uniq_ints_lost>  (5) 
0

>  <num_new_uniq_ints>  (5) 
4

>  <int_check>  (5) 
True

>  <tversky>  (5) 
0.3606203885694336

>  <mean_vol_overlap>  (5) 
0.5525694618555398

>  <rotat_bonds>  (5) 
3

>  <ref_url>  (5) 
https://pubs.acs.org/doi/10.1021/acs.jcim.3c00276?fig=tgr1&ref=pdf

>  <submitter_name>  (5) 
Steph Wills

>  <submitter_institution>  (5) 
University of Oxford

>  <submitter_email>  (5) 
stephanie.wills@balliol.ox.ac.uk

>  <generation_date>  (5) 
2023-11-27

>  <method>  (5) 
FragNetv2_pt2

>  <original SMILES>  (5) 
Cc1cnccc1NC(=O)C(C)CC#N

>  <original_name>  (5) 
x0416_0A-x0310_0A_151833_B1X

>  <ref_mols>  (5) 
x0416_0A,x0310_0A

>  <ref_pdb>  (5) 
x0310_0A

>  <rationale>  (5) 
FragNet: 1 round bioisosteric merging incl c1ccncc1 and CC(CC#N)C(=O)N[Xe] replacing N#CCC(=O)N[Xe]

$$$$
x0416_0A-x0310_0A_1221_PXX
     RDKit          3D

 17 19  0  0  0  0  0  0  0  0999 V2000
    7.1310   11.6360   26.3540 O   0  0  0  0  0  0  0  0  0  0  0  0
    7.2510   12.6630   25.7080 C   0  0  0  0  0  0  0  0  0  0  0  0
    6.5530   13.8060   25.9060 O   0  0  0  0  0  0  0  0  0  0  0  0
    5.2660   13.5090   26.4390 C   0  0  0  0  0  0  0  0  0  0  0  0
    5.0060   12.1590   27.0590 C   0  0  1  0  0  0  0  0  0  0  0  0
    5.9730   11.9390   28.2320 C   0  0  0  0  0  0  0  0  0  0  0  0
    5.0730   12.4370   29.3540 C   0  0  0  0  0  0  0  0  0  0  0  0
    3.7480   12.6420   28.9810 C   0  0  0  0  0  0  0  0  0  0  0  0
    3.6830   12.1310   27.6350 O   0  0  0  0  0  0  0  0  0  0  0  0
    8.2020   12.7530   24.5990 C   0  0  0  0  0  0  0  0  0  0  0  0
    8.6380   11.3870   24.1730 C   0  0  0  0  0  0  0  0  0  0  0  0
    9.7130   11.2300   23.2150 C   0  0  0  0  0  0  0  0  0  0  0  0
    9.8140    9.7500   23.0760 C   0  0  0  0  0  0  0  0  0  0  0  0
    8.8220    9.2860   23.9400 N   0  0  0  0  0  0  0  0  0  0  0  0
    8.0860   10.2470   24.6280 N   0  0  0  0  0  0  0  0  0  0  0  0
    9.2320   13.8640   24.5650 C   0  0  0  0  0  0  0  0  0  0  0  0
    8.0660   13.8500   23.5610 C   0  0  0  0  0  0  0  0  0  0  0  0
  1  2  2  0
  2  3  1  0
  3  4  1  0
  5  4  1  1
  5  6  1  0
  6  7  1  0
  7  8  1  0
  8  9  1  0
  2 10  1  0
 10 11  1  0
 11 12  1  0
 12 13  2  0
 13 14  1  0
 14 15  1  0
 10 16  1  0
 16 17  1  0
  9  5  1  0
 17 10  1  0
 15 11  2  0
A    1
 O1 
A    2
 C1 
A    3
 O2 
A    4
 C2 
A    5
 C3 
A    6
 C4 
A    7
 C5 
A    8
 C6 
A    9
 O3 
A   10
 C7 
A   11
 C8 
A   12
 C9 
A   13
 C10
A   14
 N1 
A   15
 N2 
A   16
 C11
A   17
 C12
M  END
>  <similarity>  (6) 
NA

>  <smiles>  (6) 
O=C(OCC1CCCO1)C1(c2cc[nH]n2)CC1

>  <cmpd_id>  (6) 
ENAMINE:Z4193559564

>  <used_subnode>  (6) 
NA

>  <used_synthon>  (6) 
NA

>  <ref_subnode>  (6) 
C1CCOC1

>  <ref_synthon>  (6) 
[Xe]c1cc[nH]n1

>  <fragmentA>  (6) 
x0416_0A

>  <fragmentB>  (6) 
x0310_0A

>  <HA>  (6) 
17

>  <HBD>  (6) 
1

>  <HBA>  (6) 
4

>  <MW>  (6) 
236.116092372

>  <TPSA>  (6) 
64.21000000000001

>  <LogP>  (6) 
1.1635

>  <RBs>  (6) 
4

>  <G_bound>  (6) 
-3.467374113237497

>  <G_unbound>  (6) 
0.8896711672889971

>  <deltaG>  (6) 
-4.357045280526494

>  <comRMSD>  (6) 
0.5446267222355985

>  <substructure_overlap_check>  (6) 
True

>  <energy_ratio_check>  (6) 
True

>  <const_energy/unconst_energy>  (6) 
1.5075124595084999

>  <sucos>  (6) 
0.5002485799830829

>  <interactions>  (6) 
Hydrophobic_VAL-124,Hydrophobic_PRO-107,HBDonor_SER-105

>  <total_num_ints>  (6) 
3

>  <total_num_ints_nonhyd>  (6) 
1

>  <num_uniq_frag_ints>  (6) 
2

>  <num_repl_uniq_ints>  (6) 
2

>  <num_uniq_ints_lost>  (6) 
0

>  <num_new_uniq_ints>  (6) 
1

>  <int_check>  (6) 
True

>  <tversky>  (6) 
0.31360083209848355

>  <mean_vol_overlap>  (6) 
0.5825642016067804

>  <rotat_bonds>  (6) 
4

>  <ref_url>  (6) 
https://pubs.acs.org/doi/10.1021/acs.jcim.3c00276?fig=tgr1&ref=pdf

>  <submitter_name>  (6) 
Steph Wills

>  <submitter_institution>  (6) 
University of Oxford

>  <submitter_email>  (6) 
stephanie.wills@balliol.ox.ac.uk

>  <generation_date>  (6) 
2023-11-27

>  <method>  (6) 
FragNetv2_pt2

>  <original SMILES>  (6) 
O=C(OCC1CCCO1)C1(c2cc[nH]n2)CC1

>  <original_name>  (6) 
x0416_0A-x0310_0A_1221_PXX

>  <ref_mols>  (6) 
x0416_0A,x0310_0A

>  <ref_pdb>  (6) 
x0310_0A

>  <rationale>  (6) 
FragNet: perfect merge incl C1CCOC1,[Xe]c1cc[nH]n1

$$$$
x0416_0A-x0310_0A_89353_B1X
     RDKit          3D

 14 15  0  0  0  0  0  0  0  0999 V2000
    6.8990   13.2110   24.5020 C   0  0  0  0  0  0  0  0  0  0  0  0
    6.6580   12.3610   25.7150 C   0  0  1  0  0  0  0  0  0  0  0  0
    5.3420   12.1970   26.0660 C   0  0  0  0  0  0  0  0  0  0  0  0
    5.0730   12.6590   27.4250 C   0  0  2  0  0  0  0  0  0  0  0  0
    5.9250   12.2410   28.4350 C   0  0  0  0  0  0  0  0  0  0  0  0
    5.1920   12.1630   29.5810 C   0  0  0  0  0  0  0  0  0  0  0  0
    3.8670   12.3090   29.2350 C   0  0  0  0  0  0  0  0  0  0  0  0
    3.9190   12.3390   27.7830 O   0  0  0  0  0  0  0  0  0  0  0  0
    7.2050   11.0170   25.5520 N   0  0  0  0  0  0  0  0  0  0  0  0
    8.1710   10.7000   24.6420 C   0  0  0  0  0  0  0  0  0  0  0  0
    8.5780    9.4230   24.0620 N   0  0  0  0  0  0  0  0  0  0  0  0
    9.6010    9.6590   23.1900 C   0  0  0  0  0  0  0  0  0  0  0  0
   10.0010   11.1070   23.0870 C   0  0  0  0  0  0  0  0  0  0  0  0
    9.0390   12.0800   24.1070 S   0  0  0  0  0  0  0  0  0  0  0  0
  2  1  1  6
  2  3  1  0
  4  3  1  6
  4  5  1  0
  5  6  1  0
  6  7  1  0
  7  8  1  0
  2  9  1  0
  9 10  1  0
 10 11  2  0
 11 12  1  0
 12 13  2  0
 13 14  1  0
  8  4  1  0
 14 10  1  0
A    1
 C1 
A    2
 C2 
A    3
 C3 
A    4
 C4 
A    5
 C5 
A    6
 C6 
A    7
 C7 
A    8
 O1 
A    9
 N1 
A   10
 C8 
A   11
 N2 
A   12
 C9 
A   13
 C10
A   14
 S1 
M  END
>  <similarity>  (7) 
1.0

>  <smiles>  (7) 
CC(CC1CCCO1)Nc1nccs1

>  <cmpd_id>  (7) 
ENAMINE:Z1024527274

>  <used_subnode>  (7) 
C1CCOC1

>  <used_synthon>  (7) 
[Xe]c1nccs1

>  <ref_subnode>  (7) 
C1CCOC1

>  <ref_synthon>  (7) 
[Xe]n1cccn1

>  <fragmentA>  (7) 
x0416_0A

>  <fragmentB>  (7) 
x0310_0A

>  <HA>  (7) 
14

>  <HBD>  (7) 
1

>  <HBA>  (7) 
4

>  <MW>  (7) 
212.098334132

>  <TPSA>  (7) 
34.15

>  <LogP>  (7) 
2.5126

>  <RBs>  (7) 
4

>  <G_bound>  (7) 
-4.927271837037914

>  <G_unbound>  (7) 
-0.037199803931074034

>  <deltaG>  (7) 
-4.89007203310684

>  <comRMSD>  (7) 
0.6692636918838295

>  <substructure_overlap_check>  (7) 
True

>  <energy_ratio_check>  (7) 
True

>  <const_energy/unconst_energy>  (7) 
5.173201927600398

>  <sucos>  (7) 
0.5011500863617719

>  <interactions>  (7) 
Hydrophobic_VAL-124,HBAcceptor_SER-105,Hydrophobic_PRO-107

>  <total_num_ints>  (7) 
3

>  <total_num_ints_nonhyd>  (7) 
1

>  <num_uniq_frag_ints>  (7) 
2

>  <num_repl_uniq_ints>  (7) 
2

>  <num_uniq_ints_lost>  (7) 
0

>  <num_new_uniq_ints>  (7) 
1

>  <int_check>  (7) 
True

>  <tversky>  (7) 
0.2589036835084564

>  <mean_vol_overlap>  (7) 
0.6322993132247214

>  <rotat_bonds>  (7) 
4

>  <ref_url>  (7) 
https://pubs.acs.org/doi/10.1021/acs.jcim.3c00276?fig=tgr1&ref=pdf

>  <submitter_name>  (7) 
Steph Wills

>  <submitter_institution>  (7) 
University of Oxford

>  <submitter_email>  (7) 
stephanie.wills@balliol.ox.ac.uk

>  <generation_date>  (7) 
2023-11-27

>  <method>  (7) 
FragNetv2_pt2

>  <original SMILES>  (7) 
CC(CC1CCCO1)Nc1nccs1

>  <original_name>  (7) 
x0416_0A-x0310_0A_89353_B1X

>  <ref_mols>  (7) 
x0416_0A,x0310_0A

>  <ref_pdb>  (7) 
x0310_0A

>  <rationale>  (7) 
FragNet: 1 round bioisosteric merging incl C1CCOC1 and [Xe]c1nccs1 replacing [Xe]n1cccn1

$$$$
x0451_0A-x0416_0A_3189_B1X
     RDKit          3D

 17 19  0  0  0  0  0  0  0  0999 V2000
   10.3170    8.9890   22.3540 C   0  0  0  0  0  0  0  0  0  0  0  0
    9.6550    9.9700   23.1910 C   0  0  0  0  0  0  0  0  0  0  0  0
    9.7910   11.2830   23.4790 C   0  0  0  0  0  0  0  0  0  0  0  0
    8.8410   11.7580   24.4020 C   0  0  0  0  0  0  0  0  0  0  0  0
    8.5510   12.9630   25.0090 C   0  0  0  0  0  0  0  0  0  0  0  0
    9.2650   14.0670   24.7660 F   0  0  0  0  0  0  0  0  0  0  0  0
    7.3900   12.9840   25.9630 C   0  0  0  0  0  0  0  0  0  0  0  0
    6.6600   11.8380   26.2090 C   0  0  0  0  0  0  0  0  0  0  0  0
    5.5070   12.0390   27.1810 C   0  0  0  0  0  0  0  0  0  0  0  0
    4.3560   12.7070   26.4560 C   0  0  0  0  0  0  0  0  0  0  0  0
    3.1570   12.9630   27.3210 C   0  0  0  0  0  0  0  0  0  0  0  0
    3.1520   11.9420   28.4380 C   0  0  0  0  0  0  0  0  0  0  0  0
    4.2900   12.1360   29.2730 O   0  0  0  0  0  0  0  0  0  0  0  0
    5.4980   11.6710   28.6460 C   0  0  0  0  0  0  0  0  0  0  0  0
    6.9850   10.6170   25.5740 C   0  0  0  0  0  0  0  0  0  0  0  0
    8.0710   10.6170   24.6840 C   0  0  0  0  0  0  0  0  0  0  0  0
    8.5940    9.5740   23.9340 N   0  0  0  0  0  0  0  0  0  0  0  0
  1  2  1  0
  2  3  2  0
  3  4  1  0
  4  5  2  0
  5  6  1  0
  5  7  1  0
  7  8  2  0
  8  9  1  0
  9 10  2  0
 10 11  1  0
 11 12  1  0
 12 13  1  0
 13 14  1  0
  8 15  1  0
 15 16  2  0
 16 17  1  0
 17  2  1  0
 16  4  1  0
 14  9  1  0
A    1
 C1 
A    2
 C2 
A    3
 C3 
A    4
 C4 
A    5
 C5 
A    6
 F1 
A    7
 C6 
A    8
 C7 
A    9
 C8 
A   10
 C9 
A   11
 C10
A   12
 C11
A   13
 O1 
A   14
 C12
A   15
 C13
A   16
 C14
A   17
 N1 
M  END
>  <similarity>  (8) 
1.0

>  <smiles>  (8) 
Cc1cc2c(F)cc(C3=CCCOC3)cc2[nH]1

>  <cmpd_id>  (8) 
ENAMINE:Z3506071959

>  <used_subnode>  (8) 
c1ccc2[nH]ccc2c1

>  <used_synthon>  (8) 
[Xe]C1=CCCOC1

>  <ref_subnode>  (8) 
c1ccc2[nH]ccc2c1

>  <ref_synthon>  (8) 
[Xe]C1CCCO1

>  <fragmentA>  (8) 
x0451_0A

>  <fragmentB>  (8) 
x0416_0A

>  <HA>  (8) 
17

>  <HBD>  (8) 
1

>  <HBA>  (8) 
1

>  <MW>  (8) 
231.105942288

>  <TPSA>  (8) 
25.02

>  <LogP>  (8) 
3.4191200000000013

>  <RBs>  (8) 
1

>  <G_bound>  (8) 
-7.869476970378078

>  <G_unbound>  (8) 
0.1331786905305638

>  <deltaG>  (8) 
-8.002655660908642

>  <comRMSD>  (8) 
0.9607878509751647

>  <substructure_overlap_check>  (8) 
True

>  <energy_ratio_check>  (8) 
True

>  <const_energy/unconst_energy>  (8) 
1.8683271050403265

>  <sucos>  (8) 
0.5012245710642986

>  <interactions>  (8) 
Hydrophobic_VAL-124,HBDonor_SER-105,Hydrophobic_PRO-107

>  <total_num_ints>  (8) 
3

>  <total_num_ints_nonhyd>  (8) 
1

>  <num_uniq_frag_ints>  (8) 
1

>  <num_repl_uniq_ints>  (8) 
1

>  <num_uniq_ints_lost>  (8) 
0

>  <num_new_uniq_ints>  (8) 
2

>  <int_check>  (8) 
True

>  <tversky>  (8) 
0.1514704501861022

>  <mean_vol_overlap>  (8) 
0.5930437031419594

>  <rotat_bonds>  (8) 
1

>  <ref_url>  (8) 
https://pubs.acs.org/doi/10.1021/acs.jcim.3c00276?fig=tgr1&ref=pdf

>  <submitter_name>  (8) 
Steph Wills

>  <submitter_institution>  (8) 
University of Oxford

>  <submitter_email>  (8) 
stephanie.wills@balliol.ox.ac.uk

>  <generation_date>  (8) 
2023-11-27

>  <method>  (8) 
FragNetv2_pt2

>  <original SMILES>  (8) 
Cc1cc2c(F)cc(C3=CCCOC3)cc2[nH]1

>  <original_name>  (8) 
x0451_0A-x0416_0A_3189_B1X

>  <ref_mols>  (8) 
x0451_0A,x0416_0A

>  <ref_pdb>  (8) 
x0310_0A

>  <rationale>  (8) 
FragNet: 1 round bioisosteric merging incl c1ccc2[nH]ccc2c1 and [Xe]C1=CCCOC1 replacing [Xe]C1CCCO1

$$$$
x0416_0A-x0310_0A_63554_B1X
     RDKit          3D

 16 17  0  0  0  0  0  0  0  0999 V2000
    4.3810   14.4680   28.2300 C   0  0  0  0  0  0  0  0  0  0  0  0
    4.7450   13.2030   27.4640 C   0  0  1  0  0  0  0  0  0  0  0  0
    5.0820   13.4870   26.0080 C   0  0  0  0  0  0  0  0  0  0  0  0
    6.4620   13.0780   25.8690 C   0  0  0  0  0  0  0  0  0  0  0  0
    7.0410   14.1360   25.0720 O   0  0  0  0  0  0  0  0  0  0  0  0
    7.3390   12.3790   26.0620 N   0  0  0  0  0  0  0  0  0  0  0  0
    7.0660   11.0010   25.6930 C   0  0  0  0  0  0  0  0  0  0  0  0
    8.1310   10.6990   24.6680 C   0  0  0  0  0  0  0  0  0  0  0  0
    8.5730    9.4710   24.1460 N   0  0  0  0  0  0  0  0  0  0  0  0
    9.5740    9.6480   23.2480 C   0  0  0  0  0  0  0  0  0  0  0  0
    9.9130   10.9720   23.0530 C   0  0  0  0  0  0  0  0  0  0  0  0
    8.9090   12.0950   24.0690 S   0  0  0  0  0  0  0  0  0  0  0  0
    5.8410   12.4530   28.2160 C   0  0  0  0  0  0  0  0  0  0  0  0
    5.0170   12.0130   29.3990 C   0  0  0  0  0  0  0  0  0  0  0  0
    3.5740   11.9630   28.9730 C   0  0  0  0  0  0  0  0  0  0  0  0
    3.6350   12.3160   27.5910 O   0  0  0  0  0  0  0  0  0  0  0  0
  2  1  1  1
  2  3  1  0
  3  4  1  0
  4  5  2  0
  4  6  1  0
  6  7  1  0
  7  8  1  0
  8  9  2  0
  9 10  1  0
 10 11  2  0
 11 12  1  0
  2 13  1  0
 13 14  1  0
 14 15  1  0
 15 16  1  0
 16  2  1  0
 12  8  1  0
A    1
 C1 
A    2
 C2 
A    3
 C3 
A    4
 C4 
A    5
 O1 
A    6
 N1 
A    7
 C5 
A    8
 C6 
A    9
 N2 
A   10
 C7 
A   11
 C8 
A   12
 S1 
A   13
 C9 
A   14
 C10
A   15
 C11
A   16
 O2 
M  END
>  <similarity>  (9) 
1.0

>  <smiles>  (9) 
CC1(CC(=O)NCc2nccs2)CCCO1

>  <cmpd_id>  (9) 
ENAMINE:Z3468212200

>  <used_subnode>  (9) 
C1CCOC1

>  <used_synthon>  (9) 
[Xe]c1nccs1

>  <ref_subnode>  (9) 
C1CCOC1

>  <ref_synthon>  (9) 
[Xe]n1cccn1

>  <fragmentA>  (9) 
x0416_0A

>  <fragmentB>  (9) 
x0310_0A

>  <HA>  (9) 
16

>  <HBD>  (9) 
1

>  <HBA>  (9) 
4

>  <MW>  (9) 
240.093248752

>  <TPSA>  (9) 
51.22

>  <LogP>  (9) 
1.7185

>  <RBs>  (9) 
4

>  <G_bound>  (9) 
-3.445010061073795

>  <G_unbound>  (9) 
0.7377600215373473

>  <deltaG>  (9) 
-4.1827700826111425

>  <comRMSD>  (9) 
0.7686242186675557

>  <substructure_overlap_check>  (9) 
True

>  <energy_ratio_check>  (9) 
True

>  <const_energy/unconst_energy>  (9) 
6.283697620919769

>  <sucos>  (9) 
0.5031023521180843

>  <interactions>  (9) 
Hydrophobic_VAL-124,HBAcceptor_SER-105,Hydrophobic_PRO-107

>  <total_num_ints>  (9) 
3

>  <total_num_ints_nonhyd>  (9) 
1

>  <num_uniq_frag_ints>  (9) 
2

>  <num_repl_uniq_ints>  (9) 
2

>  <num_uniq_ints_lost>  (9) 
0

>  <num_new_uniq_ints>  (9) 
1

>  <int_check>  (9) 
True

>  <tversky>  (9) 
0.29457668814687876

>  <mean_vol_overlap>  (9) 
0.557552623574507

>  <rotat_bonds>  (9) 
4

>  <ref_url>  (9) 
https://pubs.acs.org/doi/10.1021/acs.jcim.3c00276?fig=tgr1&ref=pdf

>  <submitter_name>  (9) 
Steph Wills

>  <submitter_institution>  (9) 
University of Oxford

>  <submitter_email>  (9) 
stephanie.wills@balliol.ox.ac.uk

>  <generation_date>  (9) 
2023-11-27

>  <method>  (9) 
FragNetv2_pt2

>  <original SMILES>  (9) 
CC1(CC(=O)NCc2nccs2)CCCO1

>  <original_name>  (9) 
x0416_0A-x0310_0A_63554_B1X

>  <ref_mols>  (9) 
x0416_0A,x0310_0A

>  <ref_pdb>  (9) 
x0310_0A

>  <rationale>  (9) 
FragNet: 1 round bioisosteric merging incl C1CCOC1 and [Xe]c1nccs1 replacing [Xe]n1cccn1

$$$$
x0416_0A-x0310_0A_80016_B1X
     RDKit          3D

 19 22  0  0  0  0  0  0  0  0999 V2000
    9.7230    9.4960   23.1660 C   0  0  0  0  0  0  0  0  0  0  0  0
    9.9080   10.9330   23.0960 C   0  0  0  0  0  0  0  0  0  0  0  0
    8.8600   11.4790   23.9580 C   0  0  0  0  0  0  0  0  0  0  0  0
    8.7170   12.9570   24.1540 C   0  0  0  0  0  0  0  0  0  0  0  0
    7.6270   13.1220   25.1670 C   0  0  0  0  0  0  0  0  0  0  0  0
    7.1070   14.3370   25.5710 N   0  0  0  0  0  0  0  0  0  0  0  0
    6.1480   13.9050   26.4850 N   0  0  0  0  0  0  0  0  0  0  0  0
    6.2310   12.5170   26.4950 C   0  0  0  0  0  0  0  0  0  0  0  0
    5.3790   11.8250   27.3350 C   0  0  1  0  0  0  0  0  0  0  0  0
    5.8500   11.6810   28.7400 C   0  0  0  0  0  0  0  0  0  0  0  0
    4.9820   12.4510   29.6470 C   0  0  0  0  0  0  0  0  0  0  0  0
    3.7580   12.8000   28.7830 C   0  0  0  0  0  0  0  0  0  0  0  0
    4.1050   12.5110   27.4040 O   0  0  0  0  0  0  0  0  0  0  0  0
    7.1850   11.9990   25.6490 O   0  0  0  0  0  0  0  0  0  0  0  0
    9.9320   13.6370   24.2230 C   0  0  0  0  0  0  0  0  0  0  0  0
    9.8360   13.9180   22.7070 C   0  0  0  0  0  0  0  0  0  0  0  0
    8.4940   13.6440   22.8270 C   0  0  0  0  0  0  0  0  0  0  0  0
    8.1400   10.3110   24.4670 O   0  0  0  0  0  0  0  0  0  0  0  0
    8.6460    9.2060   24.0020 N   0  0  0  0  0  0  0  0  0  0  0  0
  1  2  1  0
  2  3  2  0
  3  4  1  0
  4  5  1  0
  5  6  2  0
  6  7  1  0
  7  8  2  0
  9  8  1  6
  9 10  1  0
 10 11  1  0
 11 12  1  0
 12 13  1  0
  8 14  1  0
  4 15  1  0
 15 16  1  0
 16 17  1  0
  3 18  1  0
 18 19  1  0
 19  1  2  0
 17  4  1  0
 14  5  1  0
 13  9  1  0
A    1
 C1 
A    2
 C2 
A    3
 C3 
A    4
 C4 
A    5
 C5 
A    6
 N1 
A    7
 N2 
A    8
 C6 
A    9
 C7 
A   10
 C8 
A   11
 C9 
A   12
 C10
A   13
 O1 
A   14
 O2 
A   15
 C11
A   16
 C12
A   17
 C13
A   18
 O3 
A   19
 N3 
M  END
>  <similarity>  (10) 
1.0

>  <smiles>  (10) 
c1cc(C2(c3nnc(C4CCCO4)o3)CCC2)on1

>  <cmpd_id>  (10) 
ENAMINE:Z4385309909

>  <used_subnode>  (10) 
C1CCOC1

>  <used_synthon>  (10) 
[Xe]c1ccno1

>  <ref_subnode>  (10) 
C1CCOC1

>  <ref_synthon>  (10) 
[Xe]n1cccn1

>  <fragmentA>  (10) 
x0416_0A

>  <fragmentB>  (10) 
x0310_0A

>  <HA>  (10) 
19

>  <HBD>  (10) 
0

>  <HBA>  (10) 
6

>  <MW>  (10) 
261.11134134

>  <TPSA>  (10) 
74.18

>  <LogP>  (10) 
2.3791

>  <RBs>  (10) 
3

>  <G_bound>  (10) 
-3.5659785556293437

>  <G_unbound>  (10) 
0.639117875896522

>  <deltaG>  (10) 
-4.205096431525866

>  <comRMSD>  (10) 
0.6605812671879238

>  <substructure_overlap_check>  (10) 
True

>  <energy_ratio_check>  (10) 
True

>  <const_energy/unconst_energy>  (10) 
1.877730412676677

>  <sucos>  (10) 
0.5093508312613108

>  <interactions>  (10) 
Hydrophobic_VAL-124,HBAcceptor_SER-105,Hydrophobic_PRO-107

>  <total_num_ints>  (10) 
3

>  <total_num_ints_nonhyd>  (10) 
1

>  <num_uniq_frag_ints>  (10) 
2

>  <num_repl_uniq_ints>  (10) 
2

>  <num_uniq_ints_lost>  (10) 
0

>  <num_new_uniq_ints>  (10) 
1

>  <int_check>  (10) 
True

>  <tversky>  (10) 
0.16727625584489572

>  <mean_vol_overlap>  (10) 
0.5562658415585102

>  <rotat_bonds>  (10) 
3

>  <ref_url>  (10) 
https://pubs.acs.org/doi/10.1021/acs.jcim.3c00276?fig=tgr1&ref=pdf

>  <submitter_name>  (10) 
Steph Wills

>  <submitter_institution>  (10) 
University of Oxford

>  <submitter_email>  (10) 
stephanie.wills@balliol.ox.ac.uk

>  <generation_date>  (10) 
2023-11-27

>  <method>  (10) 
FragNetv2_pt2

>  <original SMILES>  (10) 
c1cc(C2(c3nnc(C4CCCO4)o3)CCC2)on1

>  <original_name>  (10) 
x0416_0A-x0310_0A_80016_B1X

>  <ref_mols>  (10) 
x0416_0A,x0310_0A

>  <ref_pdb>  (10) 
x0310_0A

>  <rationale>  (10) 
FragNet: 1 round bioisosteric merging incl C1CCOC1 and [Xe]c1ccno1 replacing [Xe]n1cccn1

$$$$
x0310_0A-x0416_0A_13862_PXX
     RDKit          3D

 16 17  0  0  0  0  0  0  0  0999 V2000
   10.4720    8.6440   23.0830 C   0  0  0  0  0  0  0  0  0  0  0  0
    9.0560    8.9440   23.5370 C   0  0  0  0  0  0  0  0  0  0  0  0
    8.9870   10.4210   23.7440 C   0  0  0  0  0  0  0  0  0  0  0  0
    9.8770   11.2070   23.1130 N   0  0  0  0  0  0  0  0  0  0  0  0
    9.6740   12.4770   23.4030 N   0  0  0  0  0  0  0  0  0  0  0  0
    8.5830   12.5890   24.2840 C   0  0  0  0  0  0  0  0  0  0  0  0
    8.1470   11.3190   24.5020 C   0  0  0  0  0  0  0  0  0  0  0  0
    7.0550   11.2710   25.3560 C   0  0  0  0  0  0  0  0  0  0  0  0
    6.8580   10.3310   26.1040 O   0  0  0  0  0  0  0  0  0  0  0  0
    6.2460   12.3410   25.2820 N   0  0  0  0  0  0  0  0  0  0  0  0
    5.5320   12.9210   26.3730 C   0  0  0  0  0  0  0  0  0  0  0  0
    5.0650   11.7880   27.2540 C   0  0  1  0  0  0  0  0  0  0  0  0
    6.0010   11.7840   28.4480 C   0  0  0  0  0  0  0  0  0  0  0  0
    5.2920   12.6180   29.5080 C   0  0  0  0  0  0  0  0  0  0  0  0
    3.8510   12.6790   29.0280 C   0  0  0  0  0  0  0  0  0  0  0  0
    3.7450   12.0520   27.7370 O   0  0  0  0  0  0  0  0  0  0  0  0
  1  2  1  0
  2  3  1  0
  3  4  1  0
  4  5  1  0
  5  6  2  0
  6  7  1  0
  7  8  1  0
  8  9  2  0
  8 10  1  0
 10 11  1  0
 12 11  1  6
 12 13  1  0
 13 14  1  0
 14 15  1  0
 15 16  1  0
  7  3  2  0
 16 12  1  0
A    1
 C1 
A    2
 C2 
A    3
 C3 
A    4
 N1 
A    5
 N2 
A    6
 C4 
A    7
 C5 
A    8
 C6 
A    9
 O1 
A   10
 N3 
A   11
 C7 
A   12
 C8 
A   13
 C9 
A   14
 C10
A   15
 C11
A   16
 O2 
M  END
>  <similarity>  (11) 
NA

>  <smiles>  (11) 
CCc1[nH]ncc1C(=O)NCC1CCCO1

>  <cmpd_id>  (11) 
ENAMINE:Z2296382937,ENAMINE:Z2643474150,ENAMINE:Z741001760

>  <used_subnode>  (11) 
NA

>  <used_synthon>  (11) 
NA

>  <ref_subnode>  (11) 
c1cn[nH]c1

>  <ref_synthon>  (11) 
[Xe]C1CCCO1

>  <fragmentA>  (11) 
x0310_0A

>  <fragmentB>  (11) 
x0416_0A

>  <HA>  (11) 
16

>  <HBD>  (11) 
2

>  <HBA>  (11) 
3

>  <MW>  (11) 
223.132076784

>  <TPSA>  (11) 
67.01

>  <LogP>  (11) 
0.8808999999999998

>  <RBs>  (11) 
4

>  <G_bound>  (11) 
-5.542859085325377

>  <G_unbound>  (11) 
0.544935497510119

>  <deltaG>  (11) 
-6.087794582835496

>  <comRMSD>  (11) 
1.4308492313960763

>  <substructure_overlap_check>  (11) 
True

>  <energy_ratio_check>  (11) 
True

>  <const_energy/unconst_energy>  (11) 
2.894414576011538

>  <sucos>  (11) 
0.5113999896466249

>  <interactions>  (11) 
HBDonor_GLY-127,Hydrophobic_VAL-124,Hydrophobic_PRO-107,Hydrophobic_ASP-109

>  <total_num_ints>  (11) 
4

>  <total_num_ints_nonhyd>  (11) 
1

>  <num_uniq_frag_ints>  (11) 
2

>  <num_repl_uniq_ints>  (11) 
2

>  <num_uniq_ints_lost>  (11) 
0

>  <num_new_uniq_ints>  (11) 
2

>  <int_check>  (11) 
True

>  <tversky>  (11) 
0.3226925940264205

>  <mean_vol_overlap>  (11) 
0.6160502235320792

>  <rotat_bonds>  (11) 
4

>  <ref_url>  (11) 
https://pubs.acs.org/doi/10.1021/acs.jcim.3c00276?fig=tgr1&ref=pdf

>  <submitter_name>  (11) 
Steph Wills

>  <submitter_institution>  (11) 
University of Oxford

>  <submitter_email>  (11) 
stephanie.wills@balliol.ox.ac.uk

>  <generation_date>  (11) 
2023-11-27

>  <method>  (11) 
FragNetv2_pt2

>  <original SMILES>  (11) 
CCc1[nH]ncc1C(=O)NCC1CCCO1

>  <original_name>  (11) 
x0310_0A-x0416_0A_13862_PXX

>  <ref_mols>  (11) 
x0310_0A,x0416_0A

>  <ref_pdb>  (11) 
x0310_0A

>  <rationale>  (11) 
FragNet: perfect merge incl c1cn[nH]c1,[Xe]C1CCCO1

$$$$
x0451_0A-x0416_0A_2701_PXX
     RDKit          3D

 17 19  0  0  0  0  0  0  0  0999 V2000
    4.3460    8.6050   27.0740 O   0  0  0  0  0  0  0  0  0  0  0  0
    5.2090    9.4850   27.0190 C   0  0  0  0  0  0  0  0  0  0  0  0
    6.2050    9.5340   26.0300 N   0  0  0  0  0  0  0  0  0  0  0  0
    6.9180   10.6640   25.5960 C   0  0  0  0  0  0  0  0  0  0  0  0
    6.5260   11.9030   26.1130 C   0  0  0  0  0  0  0  0  0  0  0  0
    7.1410   13.1200   25.7910 C   0  0  0  0  0  0  0  0  0  0  0  0
    8.1980   13.0460   24.9000 C   0  0  0  0  0  0  0  0  0  0  0  0
    8.5970   11.8380   24.3730 C   0  0  0  0  0  0  0  0  0  0  0  0
    9.7080   11.6790   23.4160 C   0  0  0  0  0  0  0  0  0  0  0  0
    9.7700   10.3160   23.1380 C   0  0  0  0  0  0  0  0  0  0  0  0
    8.7410    9.7100   23.9000 N   0  0  0  0  0  0  0  0  0  0  0  0
    8.0150   10.6360   24.6650 C   0  0  0  0  0  0  0  0  0  0  0  0
    5.1050   10.5230   28.0510 C   0  0  1  0  0  0  0  0  0  0  0  0
    6.1730   11.4550   28.4890 C   0  0  0  0  0  0  0  0  0  0  0  0
    5.6680   12.6460   28.9440 C   0  0  0  0  0  0  0  0  0  0  0  0
    4.2670   12.6460   28.6360 C   0  0  0  0  0  0  0  0  0  0  0  0
    4.0560   11.4870   27.7900 O   0  0  0  0  0  0  0  0  0  0  0  0
  1  2  2  0
  2  3  1  0
  3  4  1  0
  4  5  2  0
  5  6  1  0
  6  7  2  0
  7  8  1  0
  8  9  1  0
  9 10  2  0
 10 11  1  0
 11 12  1  0
 13  2  1  6
 13 14  1  0
 14 15  1  0
 15 16  1  0
 16 17  1  0
 12  4  1  0
 17 13  1  0
 12  8  2  0
A    1
 O1 
A    2
 C1 
A    3
 N1 
A    4
 C2 
A    5
 C3 
A    6
 C4 
A    7
 C5 
A    8
 C6 
A    9
 C7 
A   10
 C8 
A   11
 N2 
A   12
 C9 
A   13
 C10
A   14
 C11
A   15
 C12
A   16
 C13
A   17
 O2 
M  END
>  <similarity>  (12) 
NA

>  <smiles>  (12) 
O=C(Nc1cccc2cc[nH]c12)C1CCCO1

>  <cmpd_id>  (12) 
ENAMINE:Z1725489568

>  <used_subnode>  (12) 
NA

>  <used_synthon>  (12) 
NA

>  <ref_subnode>  (12) 
c1ccc2[nH]ccc2c1

>  <ref_synthon>  (12) 
[Xe]C1CCCO1

>  <fragmentA>  (12) 
x0451_0A

>  <fragmentB>  (12) 
x0416_0A

>  <HA>  (12) 
17

>  <HBD>  (12) 
2

>  <HBA>  (12) 
2

>  <MW>  (12) 
230.105527688

>  <TPSA>  (12) 
54.120000000000005

>  <LogP>  (12) 
2.2854

>  <RBs>  (12) 
2

>  <G_bound>  (12) 
-4.1648861598793845

>  <G_unbound>  (12) 
0.4233892007524875

>  <deltaG>  (12) 
-4.588275360631872

>  <comRMSD>  (12) 
0.8533280751134368

>  <substructure_overlap_check>  (12) 
True

>  <energy_ratio_check>  (12) 
True

>  <const_energy/unconst_energy>  (12) 
5.947475822103911

>  <sucos>  (12) 
0.5118471603181127

>  <interactions>  (12) 
Hydrophobic_PRO-107,HBDonor_SER-105

>  <total_num_ints>  (12) 
2

>  <total_num_ints_nonhyd>  (12) 
1

>  <num_uniq_frag_ints>  (12) 
1

>  <num_repl_uniq_ints>  (12) 
1

>  <num_uniq_ints_lost>  (12) 
0

>  <num_new_uniq_ints>  (12) 
1

>  <int_check>  (12) 
True

>  <tversky>  (12) 
0.3594678189215946

>  <mean_vol_overlap>  (12) 
0.5830710245373283

>  <rotat_bonds>  (12) 
2

>  <ref_url>  (12) 
https://pubs.acs.org/doi/10.1021/acs.jcim.3c00276?fig=tgr1&ref=pdf

>  <submitter_name>  (12) 
Steph Wills

>  <submitter_institution>  (12) 
University of Oxford

>  <submitter_email>  (12) 
stephanie.wills@balliol.ox.ac.uk

>  <generation_date>  (12) 
2023-11-27

>  <method>  (12) 
FragNetv2_pt2

>  <original SMILES>  (12) 
O=C(Nc1cccc2cc[nH]c12)C1CCCO1

>  <original_name>  (12) 
x0451_0A-x0416_0A_2701_PXX

>  <ref_mols>  (12) 
x0451_0A,x0416_0A

>  <ref_pdb>  (12) 
x0310_0A

>  <rationale>  (12) 
FragNet: perfect merge incl c1ccc2[nH]ccc2c1,[Xe]C1CCCO1

$$$$
x0416_0A-x0310_0A_73262_B1X
     RDKit          3D

 14 15  0  0  0  0  0  0  0  0999 V2000
    7.1030   13.9630   25.8320 O   0  0  0  0  0  0  0  0  0  0  0  0
    6.3440   13.0570   26.2020 C   0  0  0  0  0  0  0  0  0  0  0  0
    6.1380   11.8400   25.4660 N   0  0  0  0  0  0  0  0  0  0  0  0
    6.9520   10.7150   25.5570 C   0  0  0  0  0  0  0  0  0  0  0  0
    8.0290   10.7080   24.6730 C   0  0  0  0  0  0  0  0  0  0  0  0
    8.6380   11.8220   24.2070 C   0  0  0  0  0  0  0  0  0  0  0  0
    9.6470   11.4740   23.3550 C   0  0  0  0  0  0  0  0  0  0  0  0
    9.6980    9.7660   23.2550 S   0  0  0  0  0  0  0  0  0  0  0  0
    8.4510    9.5240   24.2820 N   0  0  0  0  0  0  0  0  0  0  0  0
    5.5150   13.0840   27.4890 C   0  0  2  0  0  0  0  0  0  0  0  0
    6.1760   12.1850   28.5500 C   0  0  0  0  0  0  0  0  0  0  0  0
    5.0350   12.1030   29.5570 C   0  0  0  0  0  0  0  0  0  0  0  0
    3.7640   12.2570   28.7170 C   0  0  0  0  0  0  0  0  0  0  0  0
    4.1980   12.4940   27.3670 O   0  0  0  0  0  0  0  0  0  0  0  0
  1  2  2  0
  2  3  1  0
  3  4  1  0
  4  5  1  0
  5  6  1  0
  6  7  2  0
  7  8  1  0
  8  9  1  0
 10  2  1  6
 10 11  1  0
 11 12  1  0
 12 13  1  0
 13 14  1  0
  9  5  2  0
 14 10  1  0
A    1
 O1 
A    2
 C1 
A    3
 N1 
A    4
 C2 
A    5
 C3 
A    6
 C4 
A    7
 C5 
A    8
 S1 
A    9
 N2 
A   10
 C6 
A   11
 C7 
A   12
 C8 
A   13
 C9 
A   14
 O2 
M  END
>  <similarity>  (13) 
1.0

>  <smiles>  (13) 
O=C(NCc1ccsn1)C1CCCO1

>  <cmpd_id>  (13) 
ENAMINE:Z3599357434,ENAMINE:Z3599371025

>  <used_subnode>  (13) 
C1CCOC1

>  <used_synthon>  (13) 
[Xe]c1ccsn1

>  <ref_subnode>  (13) 
C1CCOC1

>  <ref_synthon>  (13) 
[Xe]n1cccn1

>  <fragmentA>  (13) 
x0416_0A

>  <fragmentB>  (13) 
x0310_0A

>  <HA>  (13) 
14

>  <HBD>  (13) 
1

>  <HBA>  (13) 
4

>  <MW>  (13) 
212.061948624

>  <TPSA>  (13) 
51.22

>  <LogP>  (13) 
0.9382999999999997

>  <RBs>  (13) 
3

>  <G_bound>  (13) 
-3.774015028622667

>  <G_unbound>  (13) 
0.5978936041494293

>  <deltaG>  (13) 
-4.371908632772096

>  <comRMSD>  (13) 
1.3187380950486365

>  <substructure_overlap_check>  (13) 
True

>  <energy_ratio_check>  (13) 
True

>  <const_energy/unconst_energy>  (13) 
2.30274093015128

>  <sucos>  (13) 
0.513155028834718

>  <interactions>  (13) 
Hydrophobic_VAL-124,HBAcceptor_SER-105,HBDonor_GLY-127,Hydrophobic_PRO-107

>  <total_num_ints>  (13) 
4

>  <total_num_ints_nonhyd>  (13) 
2

>  <num_uniq_frag_ints>  (13) 
2

>  <num_repl_uniq_ints>  (13) 
2

>  <num_uniq_ints_lost>  (13) 
0

>  <num_new_uniq_ints>  (13) 
2

>  <int_check>  (13) 
True

>  <tversky>  (13) 
0.3691067352627811

>  <mean_vol_overlap>  (13) 
0.6218789832953558

>  <rotat_bonds>  (13) 
3

>  <ref_url>  (13) 
https://pubs.acs.org/doi/10.1021/acs.jcim.3c00276?fig=tgr1&ref=pdf

>  <submitter_name>  (13) 
Steph Wills

>  <submitter_institution>  (13) 
University of Oxford

>  <submitter_email>  (13) 
stephanie.wills@balliol.ox.ac.uk

>  <generation_date>  (13) 
2023-11-27

>  <method>  (13) 
FragNetv2_pt2

>  <original SMILES>  (13) 
O=C(NCc1ccsn1)C1CCCO1

>  <original_name>  (13) 
x0416_0A-x0310_0A_73262_B1X

>  <ref_mols>  (13) 
x0416_0A,x0310_0A

>  <ref_pdb>  (13) 
x0310_0A

>  <rationale>  (13) 
FragNet: 1 round bioisosteric merging incl C1CCOC1 and [Xe]c1ccsn1 replacing [Xe]n1cccn1

$$$$
x0416_0A-x0310_0A_101627_B1X
     RDKit          3D

 16 17  0  0  0  0  0  0  0  0999 V2000
    5.7750   10.7050   26.4670 C   0  0  0  0  0  0  0  0  0  0  0  0
    5.3090   11.9940   27.0830 C   0  0  2  0  0  0  0  0  0  0  0  0
    5.3240   13.1510   26.0490 C   0  0  0  0  0  0  0  0  0  0  0  0
    6.6550   13.1320   25.3140 C   0  0  0  0  0  0  0  0  0  0  0  0
    6.8790   13.8210   24.3250 O   0  0  0  0  0  0  0  0  0  0  0  0
    7.6210   12.3360   25.7790 N   0  0  0  0  0  0  0  0  0  0  0  0
    8.2950   11.6010   24.8890 C   0  0  0  0  0  0  0  0  0  0  0  0
    9.2920   12.2490   24.0050 C   0  0  0  0  0  0  0  0  0  0  0  0
   10.0410   11.3530   23.0280 C   0  0  0  0  0  0  0  0  0  0  0  0
    9.6780    9.8650   23.0530 C   0  0  0  0  0  0  0  0  0  0  0  0
    8.7540    9.2960   23.8670 N   0  0  0  0  0  0  0  0  0  0  0  0
    8.0860   10.2090   24.7770 C   0  0  0  0  0  0  0  0  0  0  0  0
    6.1880   12.2930   28.3030 C   0  0  0  0  0  0  0  0  0  0  0  0
    5.1750   12.7850   29.3440 C   0  0  0  0  0  0  0  0  0  0  0  0
    3.7710   12.5730   28.7630 C   0  0  0  0  0  0  0  0  0  0  0  0
    3.9370   11.8390   27.5450 O   0  0  0  0  0  0  0  0  0  0  0  0
  2  1  1  6
  2  3  1  0
  3  4  1  0
  4  5  2  0
  4  6  1  0
  6  7  1  0
  7  8  2  0
  8  9  1  0
  9 10  2  0
 10 11  1  0
 11 12  2  0
  2 13  1  0
 13 14  1  0
 14 15  1  0
 15 16  1  0
 16  2  1  0
 12  7  1  0
A    1
 C1 
A    2
 C2 
A    3
 C3 
A    4
 C4 
A    5
 O1 
A    6
 N1 
A    7
 C5 
A    8
 C6 
A    9
 C7 
A   10
 C8 
A   11
 N2 
A   12
 C9 
A   13
 C10
A   14
 C11
A   15
 C12
A   16
 O2 
M  END
>  <similarity>  (14) 
1.0

>  <smiles>  (14) 
CC1(CC(=O)Nc2cccnc2)CCCO1

>  <cmpd_id>  (14) 
ENAMINE:Z3466527011

>  <used_subnode>  (14) 
C1CCOC1

>  <used_synthon>  (14) 
[Xe]c1cccnc1

>  <ref_subnode>  (14) 
C1CCOC1

>  <ref_synthon>  (14) 
[Xe]n1cccn1

>  <fragmentA>  (14) 
x0416_0A

>  <fragmentB>  (14) 
x0310_0A

>  <HA>  (14) 
16

>  <HBD>  (14) 
1

>  <HBA>  (14) 
3

>  <MW>  (14) 
220.121177752

>  <TPSA>  (14) 
51.22

>  <LogP>  (14) 
1.9792999999999998

>  <RBs>  (14) 
3

>  <G_bound>  (14) 
-6.255956589067952

>  <G_unbound>  (14) 
0.5404662068698033

>  <deltaG>  (14) 
-6.7964227959377554

>  <comRMSD>  (14) 
1.2757330762314911

>  <substructure_overlap_check>  (14) 
True

>  <energy_ratio_check>  (14) 
True

>  <const_energy/unconst_energy>  (14) 
6.927864407443454

>  <sucos>  (14) 
0.5134044964247155

>  <interactions>  (14) 
Hydrophobic_VAL-124,HBAcceptor_SER-105,Hydrophobic_PRO-107

>  <total_num_ints>  (14) 
3

>  <total_num_ints_nonhyd>  (14) 
1

>  <num_uniq_frag_ints>  (14) 
2

>  <num_repl_uniq_ints>  (14) 
2

>  <num_uniq_ints_lost>  (14) 
0

>  <num_new_uniq_ints>  (14) 
1

>  <int_check>  (14) 
True

>  <tversky>  (14) 
0.3526679341662077

>  <mean_vol_overlap>  (14) 
0.5976428010920086

>  <rotat_bonds>  (14) 
3

>  <ref_url>  (14) 
https://pubs.acs.org/doi/10.1021/acs.jcim.3c00276?fig=tgr1&ref=pdf

>  <submitter_name>  (14) 
Steph Wills

>  <submitter_institution>  (14) 
University of Oxford

>  <submitter_email>  (14) 
stephanie.wills@balliol.ox.ac.uk

>  <generation_date>  (14) 
2023-11-27

>  <method>  (14) 
FragNetv2_pt2

>  <original SMILES>  (14) 
CC1(CC(=O)Nc2cccnc2)CCCO1

>  <original_name>  (14) 
x0416_0A-x0310_0A_101627_B1X

>  <ref_mols>  (14) 
x0416_0A,x0310_0A

>  <ref_pdb>  (14) 
x0310_0A

>  <rationale>  (14) 
FragNet: 1 round bioisosteric merging incl C1CCOC1 and [Xe]c1cccnc1 replacing [Xe]n1cccn1

$$$$
x0416_0A-x0310_0A_3580_PXX
     RDKit          3D

 16 17  0  0  0  0  0  0  0  0999 V2000
    9.0800   13.8820   23.4060 O   0  0  0  0  0  0  0  0  0  0  0  0
    8.4780   13.0700   24.1060 C   0  0  0  0  0  0  0  0  0  0  0  0
    7.4890   13.4110   25.1050 N   0  0  0  0  0  0  0  0  0  0  0  0
    7.4100   12.5340   26.2030 N   0  0  0  0  0  0  0  0  0  0  0  0
    6.2430   11.8080   26.3380 C   0  0  0  0  0  0  0  0  0  0  0  0
    6.0680   10.6950   25.8640 O   0  0  0  0  0  0  0  0  0  0  0  0
    5.2980   12.5990   27.1740 C   0  0  2  0  0  0  0  0  0  0  0  0
    5.9680   12.6720   28.5290 C   0  0  0  0  0  0  0  0  0  0  0  0
    4.9020   12.4070   29.5910 C   0  0  0  0  0  0  0  0  0  0  0  0
    3.6260   12.1230   28.7640 C   0  0  0  0  0  0  0  0  0  0  0  0
    4.0710   11.8520   27.4120 O   0  0  0  0  0  0  0  0  0  0  0  0
    8.6570   11.5700   24.0390 C   0  0  0  0  0  0  0  0  0  0  0  0
    9.7570   11.2010   23.1510 C   0  0  0  0  0  0  0  0  0  0  0  0
    9.7960    9.7150   23.1880 C   0  0  0  0  0  0  0  0  0  0  0  0
    8.6910    9.3980   24.1130 N   0  0  0  0  0  0  0  0  0  0  0  0
    8.0200   10.5060   24.6210 N   0  0  0  0  0  0  0  0  0  0  0  0
  1  2  2  0
  2  3  1  0
  3  4  1  0
  4  5  1  0
  5  6  2  0
  7  5  1  6
  7  8  1  0
  8  9  1  0
  9 10  1  0
 10 11  1  0
  2 12  1  0
 12 13  1  0
 13 14  2  0
 14 15  1  0
 15 16  1  0
 11  7  1  0
 16 12  2  0
A    1
 O1 
A    2
 C1 
A    3
 N1 
A    4
 N2 
A    5
 C2 
A    6
 O2 
A    7
 C3 
A    8
 C4 
A    9
 C5 
A   10
 C6 
A   11
 O3 
A   12
 C7 
A   13
 C8 
A   14
 C9 
A   15
 N3 
A   16
 N4 
M  END
>  <similarity>  (15) 
NA

>  <smiles>  (15) 
O=C(NNC(=O)C1CCCO1)c1cc[nH]n1

>  <cmpd_id>  (15) 
ENAMINE:Z2230812518

>  <used_subnode>  (15) 
NA

>  <used_synthon>  (15) 
NA

>  <ref_subnode>  (15) 
C1CCOC1

>  <ref_synthon>  (15) 
[Xe]c1cc[nH]n1

>  <fragmentA>  (15) 
x0416_0A

>  <fragmentB>  (15) 
x0310_0A

>  <HA>  (15) 
16

>  <HBD>  (15) 
3

>  <HBA>  (15) 
4

>  <MW>  (15) 
224.090940244

>  <TPSA>  (15) 
96.11

>  <LogP>  (15) 
-0.6503000000000003

>  <RBs>  (15) 
2

>  <G_bound>  (15) 
-2.9096974948577747

>  <G_unbound>  (15) 
0.7261647344836029

>  <deltaG>  (15) 
-3.6358622293413774

>  <comRMSD>  (15) 
0.6217471677522732

>  <substructure_overlap_check>  (15) 
True

>  <energy_ratio_check>  (15) 
True

>  <const_energy/unconst_energy>  (15) 
3.4220673363582663

>  <sucos>  (15) 
0.5171687209794582

>  <interactions>  (15) 
Hydrophobic_VAL-124,Hydrophobic_PRO-107,HBDonor_SER-105

>  <total_num_ints>  (15) 
3

>  <total_num_ints_nonhyd>  (15) 
1

>  <num_uniq_frag_ints>  (15) 
2

>  <num_repl_uniq_ints>  (15) 
2

>  <num_uniq_ints_lost>  (15) 
0

>  <num_new_uniq_ints>  (15) 
1

>  <int_check>  (15) 
True

>  <tversky>  (15) 
0.3386704735592144

>  <mean_vol_overlap>  (15) 
0.615008621776972

>  <rotat_bonds>  (15) 
2

>  <ref_url>  (15) 
https://pubs.acs.org/doi/10.1021/acs.jcim.3c00276?fig=tgr1&ref=pdf

>  <submitter_name>  (15) 
Steph Wills

>  <submitter_institution>  (15) 
University of Oxford

>  <submitter_email>  (15) 
stephanie.wills@balliol.ox.ac.uk

>  <generation_date>  (15) 
2023-11-27

>  <method>  (15) 
FragNetv2_pt2

>  <original SMILES>  (15) 
O=C(NNC(=O)C1CCCO1)c1cc[nH]n1

>  <original_name>  (15) 
x0416_0A-x0310_0A_3580_PXX

>  <ref_mols>  (15) 
x0416_0A,x0310_0A

>  <ref_pdb>  (15) 
x0310_0A

>  <rationale>  (15) 
FragNet: perfect merge incl C1CCOC1,[Xe]c1cc[nH]n1

$$$$
x0416_0A-x0310_0A_23519_B1X
     RDKit          3D

 18 19  0  0  0  0  0  0  0  0999 V2000
   12.0760   13.8680   22.7090 C   0  0  0  0  0  0  0  0  0  0  0  0
   10.9500   13.7420   23.7530 C   0  0  0  0  0  0  0  0  0  0  0  0
   11.1830   13.9720   24.9240 O   0  0  0  0  0  0  0  0  0  0  0  0
    9.7480   13.3690   23.2740 N   0  0  0  0  0  0  0  0  0  0  0  0
    9.3310   12.1610   23.6460 C   0  0  0  0  0  0  0  0  0  0  0  0
    9.9150   10.9800   22.9160 C   0  0  0  0  0  0  0  0  0  0  0  0
    9.4550    9.6170   23.3060 C   0  0  0  0  0  0  0  0  0  0  0  0
    8.5450    9.5080   24.3090 C   0  0  0  0  0  0  0  0  0  0  0  0
    8.0050   10.5840   25.0180 C   0  0  0  0  0  0  0  0  0  0  0  0
    7.1300   10.3100   26.0400 N   0  0  0  0  0  0  0  0  0  0  0  0
    5.9820   10.8980   26.3970 C   0  0  1  0  0  0  0  0  0  0  0  0
    5.1090   10.0700   27.0900 C   0  0  0  0  0  0  0  0  0  0  0  0
    6.1280   12.1450   27.3030 C   0  0  2  0  0  0  0  0  0  0  0  0
    5.7980   11.9730   28.7410 C   0  0  0  0  0  0  0  0  0  0  0  0
    4.3800   12.4100   28.7330 C   0  0  0  0  0  0  0  0  0  0  0  0
    3.9190   12.8070   27.6640 O   0  0  0  0  0  0  0  0  0  0  0  0
    5.0440   13.1160   26.8220 C   0  0  0  0  0  0  0  0  0  0  0  0
    8.3960   11.9050   24.6760 C   0  0  0  0  0  0  0  0  0  0  0  0
  1  2  1  0
  2  3  2  0
  2  4  1  0
  4  5  1  0
  5  6  2  0
  6  7  1  0
  7  8  2  0
  8  9  1  0
  9 10  1  0
 10 11  1  0
 11 12  1  1
 11 13  1  0
 13 14  1  1
 14 15  1  0
 15 16  1  0
 16 17  1  0
  9 18  2  0
 18  5  1  0
 17 13  1  0
A    1
 C1 
A    2
 C2 
A    3
 O1 
A    4
 N1 
A    5
 C3 
A    6
 C4 
A    7
 C5 
A    8
 C6 
A    9
 C7 
A   10
 N2 
A   11
 C8 
A   12
 C9 
A   13
 C10
A   14
 C11
A   15
 C12
A   16
 O2 
A   17
 C13
A   18
 C14
M  END
>  <similarity>  (16) 
1.0

>  <smiles>  (16) 
CC(=O)Nc1cccc(NC(C)C2CCOC2)c1

>  <cmpd_id>  (16) 
ENAMINE:Z1607050605

>  <used_subnode>  (16) 
C1CCOC1

>  <used_synthon>  (16) 
CC(=O)N[Xe]

>  <ref_subnode>  (16) 
C1CCOC1

>  <ref_synthon>  (16) 
N#CCC(=O)N[Xe]

>  <fragmentA>  (16) 
x0416_0A

>  <fragmentB>  (16) 
x0310_0A

>  <HA>  (16) 
18

>  <HBD>  (16) 
2

>  <HBA>  (16) 
3

>  <MW>  (16) 
248.15247788

>  <TPSA>  (16) 
50.36

>  <LogP>  (16) 
2.4819000000000004

>  <RBs>  (16) 
4

>  <G_bound>  (16) 
-8.311429439087048

>  <G_unbound>  (16) 
0.40595397682466594

>  <deltaG>  (16) 
-8.717383415911714

>  <comRMSD>  (16) 
0.8540941001589766

>  <substructure_overlap_check>  (16) 
True

>  <energy_ratio_check>  (16) 
True

>  <const_energy/unconst_energy>  (16) 
5.277101942212754

>  <sucos>  (16) 
0.5180003555353769

>  <interactions>  (16) 
Hydrophobic_VAL-124,HBDonor_SER-105,Hydrophobic_PRO-107,Hydrophobic_HIS-21

>  <total_num_ints>  (16) 
4

>  <total_num_ints_nonhyd>  (16) 
1

>  <num_uniq_frag_ints>  (16) 
2

>  <num_repl_uniq_ints>  (16) 
2

>  <num_uniq_ints_lost>  (16) 
0

>  <num_new_uniq_ints>  (16) 
2

>  <int_check>  (16) 
True

>  <tversky>  (16) 
0.26022125025669063

>  <mean_vol_overlap>  (16) 
0.5641927970653641

>  <rotat_bonds>  (16) 
4

>  <ref_url>  (16) 
https://pubs.acs.org/doi/10.1021/acs.jcim.3c00276?fig=tgr1&ref=pdf

>  <submitter_name>  (16) 
Steph Wills

>  <submitter_institution>  (16) 
University of Oxford

>  <submitter_email>  (16) 
stephanie.wills@balliol.ox.ac.uk

>  <generation_date>  (16) 
2023-11-27

>  <method>  (16) 
FragNetv2_pt2

>  <original SMILES>  (16) 
CC(=O)Nc1cccc(NC(C)C2CCOC2)c1

>  <original_name>  (16) 
x0416_0A-x0310_0A_23519_B1X

>  <ref_mols>  (16) 
x0416_0A,x0310_0A

>  <ref_pdb>  (16) 
x0310_0A

>  <rationale>  (16) 
FragNet: 1 round bioisosteric merging incl C1CCOC1 and CC(=O)N[Xe] replacing N#CCC(=O)N[Xe]

$$$$
x0416_0A-x0310_0A_123390_B1X
     RDKit          3D

 15 15  0  0  0  0  0  0  0  0999 V2000
    9.9250    8.3590   23.0850 C   0  0  0  0  0  0  0  0  0  0  0  0
   10.0800    9.8110   22.9990 C   0  0  0  0  0  0  0  0  0  0  0  0
    9.0910   10.6220   23.7860 C   0  0  0  0  0  0  0  0  0  0  0  0
    8.1810    9.9240   24.5090 N   0  0  0  0  0  0  0  0  0  0  0  0
    7.3100   10.6600   25.2260 C   0  0  0  0  0  0  0  0  0  0  0  0
    7.3170   12.1800   25.2330 C   0  0  0  0  0  0  0  0  0  0  0  0
    6.4440   12.9030   25.9520 F   0  0  0  0  0  0  0  0  0  0  0  0
    8.2930   12.7710   24.4430 C   0  0  0  0  0  0  0  0  0  0  0  0
    9.1850   11.9960   23.7170 C   0  0  0  0  0  0  0  0  0  0  0  0
   10.1970   12.5460   22.9090 N   0  0  0  0  0  0  0  0  0  0  0  0
   11.1140   13.4660   23.3210 C   0  0  0  0  0  0  0  0  0  0  0  0
   11.2660   13.8770   24.4680 O   0  0  0  0  0  0  0  0  0  0  0  0
   11.9820   14.0200   22.2480 C   0  0  0  0  0  0  0  0  0  0  0  0
   12.6310   15.2950   22.7730 C   0  0  0  0  0  0  0  0  0  0  0  0
   11.1100   14.4410   21.0540 C   0  0  0  0  0  0  0  0  0  0  0  0
  1  2  1  0
  2  3  1  0
  3  4  2  0
  4  5  1  0
  5  6  2  0
  6  7  1  0
  6  8  1  0
  8  9  2  0
  9 10  1  0
 10 11  1  0
 11 12  2  0
 11 13  1  0
 13 14  1  0
 13 15  1  0
  9  3  1  0
A    1
 C1 
A    2
 C2 
A    3
 C3 
A    4
 N1 
A    5
 C4 
A    6
 C5 
A    7
 F1 
A    8
 C6 
A    9
 C7 
A   10
 N2 
A   11
 C8 
A   12
 O1 
A   13
 C9 
A   14
 C10
A   15
 C11
M  END
>  <similarity>  (17) 
1.0

>  <smiles>  (17) 
CCc1ncc(F)cc1NC(=O)C(C)C

>  <cmpd_id>  (17) 
ENAMINE:Z3614356474

>  <used_subnode>  (17) 
c1ccncc1

>  <used_synthon>  (17) 
CC(C)C(=O)N[Xe]

>  <ref_subnode>  (17) 
c1ccncc1

>  <ref_synthon>  (17) 
N#CCC(=O)N[Xe]

>  <fragmentA>  (17) 
x0416_0A

>  <fragmentB>  (17) 
x0310_0A

>  <HA>  (17) 
15

>  <HBD>  (17) 
1

>  <HBA>  (17) 
2

>  <MW>  (17) 
210.11684132

>  <TPSA>  (17) 
41.99

>  <LogP>  (17) 
2.3776

>  <RBs>  (17) 
3

>  <G_bound>  (17) 
-10.631590563032663

>  <G_unbound>  (17) 
-0.23150762018455057

>  <deltaG>  (17) 
-10.400082942848112

>  <comRMSD>  (17) 
0.6589073718840427

>  <substructure_overlap_check>  (17) 
True

>  <energy_ratio_check>  (17) 
True

>  <const_energy/unconst_energy>  (17) 
3.6674235933277313

>  <sucos>  (17) 
0.5181950142319962

>  <interactions>  (17) 
HBDonor_SER-125,Hydrophobic_TYR-90,Hydrophobic_VAL-124,HBAcceptor_SER-105,Hydrophobic_TYR-89,Hydrophobic_ASP-109,Hydrophobic_PRO-107,Hydrophobic_HIS-21

>  <total_num_ints>  (17) 
8

>  <total_num_ints_nonhyd>  (17) 
2

>  <num_uniq_frag_ints>  (17) 
2

>  <num_repl_uniq_ints>  (17) 
2

>  <num_uniq_ints_lost>  (17) 
0

>  <num_new_uniq_ints>  (17) 
6

>  <int_check>  (17) 
True

>  <tversky>  (17) 
0.2940123348780463

>  <mean_vol_overlap>  (17) 
0.6163859881373668

>  <rotat_bonds>  (17) 
3

>  <ref_url>  (17) 
https://pubs.acs.org/doi/10.1021/acs.jcim.3c00276?fig=tgr1&ref=pdf

>  <submitter_name>  (17) 
Steph Wills

>  <submitter_institution>  (17) 
University of Oxford

>  <submitter_email>  (17) 
stephanie.wills@balliol.ox.ac.uk

>  <generation_date>  (17) 
2023-11-27

>  <method>  (17) 
FragNetv2_pt2

>  <original SMILES>  (17) 
CCc1ncc(F)cc1NC(=O)C(C)C

>  <original_name>  (17) 
x0416_0A-x0310_0A_123390_B1X

>  <ref_mols>  (17) 
x0416_0A,x0310_0A

>  <ref_pdb>  (17) 
x0310_0A

>  <rationale>  (17) 
FragNet: 1 round bioisosteric merging incl c1ccncc1 and CC(C)C(=O)N[Xe] replacing N#CCC(=O)N[Xe]

$$$$
x0451_0A-x0416_0A_1488_PXX
     RDKit          3D

 18 20  0  0  0  0  0  0  0  0999 V2000
    6.6480   13.3730   26.6470 C   0  0  0  0  0  0  0  0  0  0  0  0
    7.2710   12.3040   25.7960 C   0  0  0  0  0  0  0  0  0  0  0  0
    8.3510   12.6960   24.9760 C   0  0  0  0  0  0  0  0  0  0  0  0
    8.9360   11.7370   24.1890 C   0  0  0  0  0  0  0  0  0  0  0  0
    9.9820   11.7730   23.2930 C   0  0  0  0  0  0  0  0  0  0  0  0
   10.0320   10.3630   22.8310 C   0  0  0  0  0  0  0  0  0  0  0  0
    9.1070    9.5630   23.4000 N   0  0  0  0  0  0  0  0  0  0  0  0
    8.4540   10.4380   24.2240 C   0  0  0  0  0  0  0  0  0  0  0  0
    7.4360   10.0130   24.9810 C   0  0  0  0  0  0  0  0  0  0  0  0
    6.8220   10.9400   25.7830 C   0  0  0  0  0  0  0  0  0  0  0  0
    5.7680   10.5890   26.5840 N   0  0  0  0  0  0  0  0  0  0  0  0
    4.8830   11.4900   27.0620 C   0  0  0  0  0  0  0  0  0  0  0  0
    4.3650   12.4250   26.4670 O   0  0  0  0  0  0  0  0  0  0  0  0
    4.6050   11.2200   28.4790 C   0  0  1  0  0  0  0  0  0  0  0  0
    5.6620   11.6790   29.2750 C   0  0  0  0  0  0  0  0  0  0  0  0
    5.3060   12.9440   29.6570 C   0  0  0  0  0  0  0  0  0  0  0  0
    3.9130   13.3630   29.2520 C   0  0  0  0  0  0  0  0  0  0  0  0
    3.4680   12.0920   28.7500 O   0  0  0  0  0  0  0  0  0  0  0  0
  1  2  1  0
  2  3  2  0
  3  4  1  0
  4  5  1  0
  5  6  2  0
  6  7  1  0
  7  8  1  0
  8  9  1  0
  9 10  2  0
 10 11  1  0
 11 12  1  0
 12 13  2  0
 14 12  1  6
 14 15  1  0
 15 16  1  0
 16 17  1  0
 17 18  1  0
 10  2  1  0
 18 14  1  0
  8  4  2  0
A    1
 C1 
A    2
 C2 
A    3
 C3 
A    4
 C4 
A    5
 C5 
A    6
 C6 
A    7
 N1 
A    8
 C7 
A    9
 C8 
A   10
 C9 
A   11
 N2 
A   12
 C10
A   13
 O1 
A   14
 C11
A   15
 C12
A   16
 C13
A   17
 C14
A   18
 O2 
M  END
>  <similarity>  (18) 
NA

>  <smiles>  (18) 
Cc1cc2cc[nH]c2cc1NC(=O)C1CCCO1

>  <cmpd_id>  (18) 
ENAMINE:Z1768376965

>  <used_subnode>  (18) 
NA

>  <used_synthon>  (18) 
NA

>  <ref_subnode>  (18) 
c1ccc2[nH]ccc2c1

>  <ref_synthon>  (18) 
[Xe]C1CCCO1

>  <fragmentA>  (18) 
x0451_0A

>  <fragmentB>  (18) 
x0416_0A

>  <HA>  (18) 
18

>  <HBD>  (18) 
2

>  <HBA>  (18) 
2

>  <MW>  (18) 
244.121177752

>  <TPSA>  (18) 
54.120000000000005

>  <LogP>  (18) 
2.593820000000001

>  <RBs>  (18) 
2

>  <G_bound>  (18) 
-5.832976278072418

>  <G_unbound>  (18) 
0.2925920545785661

>  <deltaG>  (18) 
-6.1255683326509835

>  <comRMSD>  (18) 
0.7574425727963735

>  <substructure_overlap_check>  (18) 
True

>  <energy_ratio_check>  (18) 
True

>  <const_energy/unconst_energy>  (18) 
3.1133256193413192

>  <sucos>  (18) 
0.5194179799599532

>  <interactions>  (18) 
Hydrophobic_PRO-107,HBDonor_SER-105

>  <total_num_ints>  (18) 
2

>  <total_num_ints_nonhyd>  (18) 
1

>  <num_uniq_frag_ints>  (18) 
1

>  <num_repl_uniq_ints>  (18) 
1

>  <num_uniq_ints_lost>  (18) 
0

>  <num_new_uniq_ints>  (18) 
1

>  <int_check>  (18) 
True

>  <tversky>  (18) 
0.3550074614477323

>  <mean_vol_overlap>  (18) 
0.5878588646727905

>  <rotat_bonds>  (18) 
2

>  <ref_url>  (18) 
https://pubs.acs.org/doi/10.1021/acs.jcim.3c00276?fig=tgr1&ref=pdf

>  <submitter_name>  (18) 
Steph Wills

>  <submitter_institution>  (18) 
University of Oxford

>  <submitter_email>  (18) 
stephanie.wills@balliol.ox.ac.uk

>  <generation_date>  (18) 
2023-11-27

>  <method>  (18) 
FragNetv2_pt2

>  <original SMILES>  (18) 
Cc1cc2cc[nH]c2cc1NC(=O)C1CCCO1

>  <original_name>  (18) 
x0451_0A-x0416_0A_1488_PXX

>  <ref_mols>  (18) 
x0451_0A,x0416_0A

>  <ref_pdb>  (18) 
x0310_0A

>  <rationale>  (18) 
FragNet: perfect merge incl c1ccc2[nH]ccc2c1,[Xe]C1CCCO1

$$$$
x0416_0A-x0310_0A_109816_B1X
     RDKit          3D

 15 15  0  0  0  0  0  0  0  0999 V2000
   11.0240    8.9400   23.2500 C   0  0  0  0  0  0  0  0  0  0  0  0
   10.3200   10.1190   22.7030 C   0  0  0  0  0  0  0  0  0  0  0  0
    9.2390   10.6020   23.5970 C   0  0  0  0  0  0  0  0  0  0  0  0
    8.3570    9.7120   24.3790 C   0  0  0  0  0  0  0  0  0  0  0  0
    7.4130   10.3160   25.1430 N   0  0  0  0  0  0  0  0  0  0  0  0
    7.1670   11.6920   25.2850 C   0  0  0  0  0  0  0  0  0  0  0  0
    6.0230   12.1230   26.2140 C   0  0  0  0  0  0  0  0  0  0  0  0
    8.0090   12.5530   24.5450 C   0  0  0  0  0  0  0  0  0  0  0  0
    9.0360   12.1020   23.7060 C   0  0  0  0  0  0  0  0  0  0  0  0
    9.9200   12.8970   22.9530 N   0  0  0  0  0  0  0  0  0  0  0  0
   10.8560   13.6750   23.6050 C   0  0  0  0  0  0  0  0  0  0  0  0
   10.6590   14.2100   24.6860 O   0  0  0  0  0  0  0  0  0  0  0  0
   12.0950   13.8040   22.9770 C   0  0  0  0  0  0  0  0  0  0  0  0
   13.2480   13.5400   23.8820 C   0  0  0  0  0  0  0  0  0  0  0  0
   12.2570   15.0800   22.4170 C   0  0  0  0  0  0  0  0  0  0  0  0
  1  2  1  0
  2  3  1  0
  3  4  2  0
  4  5  1  0
  5  6  2  0
  6  7  1  0
  6  8  1  0
  8  9  2  0
  9 10  1  0
 10 11  1  0
 11 12  2  0
 11 13  1  0
 13 14  1  0
 13 15  1  0
  9  3  1  0
A    1
 C1 
A    2
 C2 
A    3
 C3 
A    4
 C4 
A    5
 N1 
A    6
 C5 
A    7
 C6 
A    8
 C7 
A    9
 C8 
A   10
 N2 
A   11
 C9 
A   12
 O1 
A   13
 C10
A   14
 C11
A   15
 C12
M  END
>  <similarity>  (19) 
1.0

>  <smiles>  (19) 
CCc1cnc(C)cc1NC(=O)C(C)C

>  <cmpd_id>  (19) 
ENAMINE:Z4202334554

>  <used_subnode>  (19) 
c1ccncc1

>  <used_synthon>  (19) 
CC(C)C(=O)N[Xe]

>  <ref_subnode>  (19) 
c1ccncc1

>  <ref_synthon>  (19) 
N#CCC(=O)N[Xe]

>  <fragmentA>  (19) 
x0416_0A

>  <fragmentB>  (19) 
x0310_0A

>  <HA>  (19) 
15

>  <HBD>  (19) 
1

>  <HBA>  (19) 
2

>  <MW>  (19) 
206.141913196

>  <TPSA>  (19) 
41.99

>  <LogP>  (19) 
2.546920000000001

>  <RBs>  (19) 
3

>  <G_bound>  (19) 
-9.886270452561694

>  <G_unbound>  (19) 
-0.09977799316652286

>  <deltaG>  (19) 
-9.786492459395172

>  <comRMSD>  (19) 
0.7340504645526741

>  <substructure_overlap_check>  (19) 
True

>  <energy_ratio_check>  (19) 
True

>  <const_energy/unconst_energy>  (19) 
4.20412957454221

>  <sucos>  (19) 
0.5213383355876599

>  <interactions>  (19) 
Hydrophobic_CYS-110,HBDonor_SER-125,Hydrophobic_TYR-90,Hydrophobic_VAL-124,Hydrophobic_TYR-89,Hydrophobic_ASP-109,Hydrophobic_PRO-107,Hydrophobic_HIS-21

>  <total_num_ints>  (19) 
8

>  <total_num_ints_nonhyd>  (19) 
1

>  <num_uniq_frag_ints>  (19) 
2

>  <num_repl_uniq_ints>  (19) 
2

>  <num_uniq_ints_lost>  (19) 
0

>  <num_new_uniq_ints>  (19) 
6

>  <int_check>  (19) 
True

>  <tversky>  (19) 
0.37674325988790797

>  <mean_vol_overlap>  (19) 
0.5852405088537526

>  <rotat_bonds>  (19) 
3

>  <ref_url>  (19) 
https://pubs.acs.org/doi/10.1021/acs.jcim.3c00276?fig=tgr1&ref=pdf

>  <submitter_name>  (19) 
Steph Wills

>  <submitter_institution>  (19) 
University of Oxford

>  <submitter_email>  (19) 
stephanie.wills@balliol.ox.ac.uk

>  <generation_date>  (19) 
2023-11-27

>  <method>  (19) 
FragNetv2_pt2

>  <original SMILES>  (19) 
CCc1cnc(C)cc1NC(=O)C(C)C

>  <original_name>  (19) 
x0416_0A-x0310_0A_109816_B1X

>  <ref_mols>  (19) 
x0416_0A,x0310_0A

>  <ref_pdb>  (19) 
x0310_0A

>  <rationale>  (19) 
FragNet: 1 round bioisosteric merging incl c1ccncc1 and CC(C)C(=O)N[Xe] replacing N#CCC(=O)N[Xe]

$$$$
x0416_0A-x0310_0A_160010_B1X
     RDKit          3D

 18 18  0  0  0  0  0  0  0  0999 V2000
    9.8350    9.3320   23.0210 C   0  0  0  0  0  0  0  0  0  0  0  0
    9.0680   10.3920   23.7920 C   0  0  0  0  0  0  0  0  0  0  0  0
    8.0570    9.9440   24.6250 N   0  0  0  0  0  0  0  0  0  0  0  0
    7.3440   10.9230   25.3340 C   0  0  0  0  0  0  0  0  0  0  0  0
    6.2070   10.5900   26.3190 C   0  0  0  0  0  0  0  0  0  0  0  0
    6.1520   11.2680   27.4660 N   0  0  0  0  0  0  0  0  0  0  0  0
    5.4290    9.7290   25.9600 O   0  0  0  0  0  0  0  0  0  0  0  0
    7.5660   12.2570   25.2510 C   0  0  0  0  0  0  0  0  0  0  0  0
    8.5820   12.6850   24.4160 C   0  0  0  0  0  0  0  0  0  0  0  0
    9.3400   11.7580   23.6890 C   0  0  0  0  0  0  0  0  0  0  0  0
   10.3680   12.2170   22.8780 N   0  0  0  0  0  0  0  0  0  0  0  0
   11.1160   13.3000   23.2140 C   0  0  0  0  0  0  0  0  0  0  0  0
   11.2570   13.7210   24.3590 O   0  0  0  0  0  0  0  0  0  0  0  0
   11.7440   13.9450   22.0090 C   0  0  0  0  0  0  0  0  0  0  0  0
   12.5680   15.1410   22.4180 C   0  0  0  0  0  0  0  0  0  0  0  0
   13.3400   15.6050   21.4130 F   0  0  0  0  0  0  0  0  0  0  0  0
   11.8570   16.1970   22.8270 F   0  0  0  0  0  0  0  0  0  0  0  0
   13.3400   14.7710   23.4620 F   0  0  0  0  0  0  0  0  0  0  0  0
  1  2  1  0
  2  3  2  0
  3  4  1  0
  4  5  1  0
  5  6  1  0
  5  7  2  0
  4  8  2  0
  8  9  1  0
  9 10  2  0
 10 11  1  0
 11 12  1  0
 12 13  2  0
 12 14  1  0
 14 15  1  0
 15 16  1  0
 15 17  1  0
 15 18  1  0
 10  2  1  0
A    1
 C1 
A    2
 C2 
A    3
 N1 
A    4
 C3 
A    5
 C4 
A    6
 N2 
A    7
 O1 
A    8
 C5 
A    9
 C6 
A   10
 C7 
A   11
 N3 
A   12
 C8 
A   13
 O2 
A   14
 C9 
A   15
 C10
A   16
 F1 
A   17
 F2 
A   18
 F3 
M  END
>  <similarity>  (20) 
1.0

>  <smiles>  (20) 
Cc1nc(C(N)=O)ccc1NC(=O)CC(F)(F)F

>  <cmpd_id>  (20) 
ENAMINE:Z2963611432

>  <used_subnode>  (20) 
c1ccncc1

>  <used_synthon>  (20) 
O=C(CC(F)(F)F)N[Xe]

>  <ref_subnode>  (20) 
c1ccncc1

>  <ref_synthon>  (20) 
N#CCC(=O)N[Xe]

>  <fragmentA>  (20) 
x0416_0A

>  <fragmentB>  (20) 
x0310_0A

>  <HA>  (20) 
18

>  <HBD>  (20) 
2

>  <HBA>  (20) 
3

>  <MW>  (20) 
261.07251122

>  <TPSA>  (20) 
85.07999999999998

>  <LogP>  (20) 
1.37982

>  <RBs>  (20) 
3

>  <G_bound>  (20) 
-5.712489944141619

>  <G_unbound>  (20) 
0.5265996622489958

>  <deltaG>  (20) 
-6.239089606390615

>  <comRMSD>  (20) 
0.4035039870659038

>  <substructure_overlap_check>  (20) 
True

>  <energy_ratio_check>  (20) 
True

>  <const_energy/unconst_energy>  (20) 
3.7318314370040424

>  <sucos>  (20) 
0.5260609805291906

>  <interactions>  (20) 
HBDonor_SER-125,Hydrophobic_VAL-124,Hydrophobic_PRO-107,Hydrophobic_HIS-21

>  <total_num_ints>  (20) 
4

>  <total_num_ints_nonhyd>  (20) 
1

>  <num_uniq_frag_ints>  (20) 
2

>  <num_repl_uniq_ints>  (20) 
2

>  <num_uniq_ints_lost>  (20) 
0

>  <num_new_uniq_ints>  (20) 
2

>  <int_check>  (20) 
True

>  <tversky>  (20) 
0.34050261230349943

>  <mean_vol_overlap>  (20) 
0.572257587422615

>  <rotat_bonds>  (20) 
3

>  <ref_url>  (20) 
https://pubs.acs.org/doi/10.1021/acs.jcim.3c00276?fig=tgr1&ref=pdf

>  <submitter_name>  (20) 
Steph Wills

>  <submitter_institution>  (20) 
University of Oxford

>  <submitter_email>  (20) 
stephanie.wills@balliol.ox.ac.uk

>  <generation_date>  (20) 
2023-11-27

>  <method>  (20) 
FragNetv2_pt2

>  <original SMILES>  (20) 
Cc1nc(C(N)=O)ccc1NC(=O)CC(F)(F)F

>  <original_name>  (20) 
x0416_0A-x0310_0A_160010_B1X

>  <ref_mols>  (20) 
x0416_0A,x0310_0A

>  <ref_pdb>  (20) 
x0310_0A

>  <rationale>  (20) 
FragNet: 1 round bioisosteric merging incl c1ccncc1 and O=C(CC(F)(F)F)N[Xe] replacing N#CCC(=O)N[Xe]

$$$$
x0416_0A-x0310_0A_79823_B1X
     RDKit          3D

 18 20  0  0  0  0  0  0  0  0999 V2000
    8.1950   14.9210   25.6400 O   0  0  0  0  0  0  0  0  0  0  0  0
    8.0740   13.7200   25.4180 C   0  0  0  0  0  0  0  0  0  0  0  0
    7.4130   12.9080   26.2600 O   0  0  0  0  0  0  0  0  0  0  0  0
    5.9740   12.9430   26.2020 C   0  0  0  0  0  0  0  0  0  0  0  0
    5.4330   11.9640   27.0290 C   0  0  1  0  0  0  0  0  0  0  0  0
    6.0470   11.8230   28.2730 C   0  0  0  0  0  0  0  0  0  0  0  0
    5.2340   12.3520   29.2620 C   0  0  0  0  0  0  0  0  0  0  0  0
    3.8920   12.6160   28.6740 C   0  0  0  0  0  0  0  0  0  0  0  0
    4.0310   12.2500   27.2920 O   0  0  0  0  0  0  0  0  0  0  0  0
    8.6170   13.0370   24.2700 C   0  0  0  0  0  0  0  0  0  0  0  0
    8.7130   11.5610   24.1150 C   0  0  0  0  0  0  0  0  0  0  0  0
    9.7750   11.0230   23.2260 C   0  0  0  0  0  0  0  0  0  0  0  0
    9.5490    9.5730   23.3310 C   0  0  0  0  0  0  0  0  0  0  0  0
    8.4930    9.3200   24.1670 N   0  0  0  0  0  0  0  0  0  0  0  0
    7.9710   10.5690   24.6630 O   0  0  0  0  0  0  0  0  0  0  0  0
    9.9250   13.5720   24.0660 C   0  0  0  0  0  0  0  0  0  0  0  0
    9.6100   13.7940   22.8380 C   0  0  0  0  0  0  0  0  0  0  0  0
    8.2590   13.6550   23.0150 C   0  0  0  0  0  0  0  0  0  0  0  0
  1  2  2  0
  2  3  1  0
  3  4  1  0
  5  4  1  1
  5  6  1  0
  6  7  1  0
  7  8  1  0
  8  9  1  0
  2 10  1  0
 10 11  1  0
 11 12  2  0
 12 13  1  0
 13 14  2  0
 14 15  1  0
 10 16  1  0
 16 17  1  0
 17 18  1  0
  9  5  1  0
 18 10  1  0
 15 11  1  0
A    1
 O1 
A    2
 C1 
A    3
 O2 
A    4
 C2 
A    5
 C3 
A    6
 C4 
A    7
 C5 
A    8
 C6 
A    9
 O3 
A   10
 C7 
A   11
 C8 
A   12
 C9 
A   13
 C10
A   14
 N1 
A   15
 O4 
A   16
 C11
A   17
 C12
A   18
 C13
M  END
>  <similarity>  (21) 
1.0

>  <smiles>  (21) 
O=C(OCC1CCCO1)C1(c2ccno2)CCC1

>  <cmpd_id>  (21) 
ENAMINE:Z4396315791

>  <used_subnode>  (21) 
C1CCOC1

>  <used_synthon>  (21) 
[Xe]c1ccno1

>  <ref_subnode>  (21) 
C1CCOC1

>  <ref_synthon>  (21) 
[Xe]n1cccn1

>  <fragmentA>  (21) 
x0416_0A

>  <fragmentB>  (21) 
x0310_0A

>  <HA>  (21) 
18

>  <HBD>  (21) 
0

>  <HBA>  (21) 
5

>  <MW>  (21) 
251.115758024

>  <TPSA>  (21) 
61.56

>  <LogP>  (21) 
1.8185000000000002

>  <RBs>  (21) 
4

>  <G_bound>  (21) 
-3.0056864173051916

>  <G_unbound>  (21) 
1.0862610898079434

>  <deltaG>  (21) 
-4.091947507113135

>  <comRMSD>  (21) 
0.4019598790257264

>  <substructure_overlap_check>  (21) 
True

>  <energy_ratio_check>  (21) 
True

>  <const_energy/unconst_energy>  (21) 
2.5977236765343292

>  <sucos>  (21) 
0.5260995072270195

>  <interactions>  (21) 
Hydrophobic_VAL-124,HBAcceptor_SER-105,Hydrophobic_PRO-107

>  <total_num_ints>  (21) 
3

>  <total_num_ints_nonhyd>  (21) 
1

>  <num_uniq_frag_ints>  (21) 
2

>  <num_repl_uniq_ints>  (21) 
2

>  <num_uniq_ints_lost>  (21) 
0

>  <num_new_uniq_ints>  (21) 
1

>  <int_check>  (21) 
True

>  <tversky>  (21) 
0.2765699375585031

>  <mean_vol_overlap>  (21) 
0.5542284403294158

>  <rotat_bonds>  (21) 
4

>  <ref_url>  (21) 
https://pubs.acs.org/doi/10.1021/acs.jcim.3c00276?fig=tgr1&ref=pdf

>  <submitter_name>  (21) 
Steph Wills

>  <submitter_institution>  (21) 
University of Oxford

>  <submitter_email>  (21) 
stephanie.wills@balliol.ox.ac.uk

>  <generation_date>  (21) 
2023-11-27

>  <method>  (21) 
FragNetv2_pt2

>  <original SMILES>  (21) 
O=C(OCC1CCCO1)C1(c2ccno2)CCC1

>  <original_name>  (21) 
x0416_0A-x0310_0A_79823_B1X

>  <ref_mols>  (21) 
x0416_0A,x0310_0A

>  <ref_pdb>  (21) 
x0310_0A

>  <rationale>  (21) 
FragNet: 1 round bioisosteric merging incl C1CCOC1 and [Xe]c1ccno1 replacing [Xe]n1cccn1

$$$$
x0416_0A-x0310_0A_153465_B1X
     RDKit          3D

 16 16  0  0  0  0  0  0  0  0999 V2000
   10.1020    9.3690   22.8500 C   0  0  0  0  0  0  0  0  0  0  0  0
    9.2300   10.2980   23.6670 C   0  0  0  0  0  0  0  0  0  0  0  0
    8.2740    9.6710   24.3920 N   0  0  0  0  0  0  0  0  0  0  0  0
    7.4510   10.4390   25.1380 C   0  0  0  0  0  0  0  0  0  0  0  0
    7.5600   11.9610   25.1880 C   0  0  0  0  0  0  0  0  0  0  0  0
    8.5740   12.5000   24.4140 C   0  0  0  0  0  0  0  0  0  0  0  0
    9.4180   11.6940   23.6530 C   0  0  0  0  0  0  0  0  0  0  0  0
   10.4450   12.2850   22.8950 N   0  0  0  0  0  0  0  0  0  0  0  0
   11.1790   13.3810   23.3250 C   0  0  0  0  0  0  0  0  0  0  0  0
   11.2720   13.7270   24.4970 O   0  0  0  0  0  0  0  0  0  0  0  0
   11.8010   14.0930   22.3030 C   0  0  0  0  0  0  0  0  0  0  0  0
   12.5490   13.2770   21.5230 F   0  0  0  0  0  0  0  0  0  0  0  0
   10.8410   14.5910   21.4630 F   0  0  0  0  0  0  0  0  0  0  0  0
   12.6180   15.1250   22.6580 C   0  0  0  0  0  0  0  0  0  0  0  0
   11.9250   16.2670   22.8070 F   0  0  0  0  0  0  0  0  0  0  0  0
   13.4710   15.3730   21.6330 F   0  0  0  0  0  0  0  0  0  0  0  0
  1  2  1  0
  2  3  2  0
  3  4  1  0
  4  5  2  0
  5  6  1  0
  6  7  2  0
  7  8  1  0
  8  9  1  0
  9 10  2  0
  9 11  1  0
 11 12  1  0
 11 13  1  0
 11 14  1  0
 14 15  1  0
 14 16  1  0
  7  2  1  0
A    1
 C1 
A    2
 C2 
A    3
 N1 
A    4
 C3 
A    5
 C4 
A    6
 C5 
A    7
 C6 
A    8
 N2 
A    9
 C7 
A   10
 O1 
A   11
 C8 
A   12
 F1 
A   13
 F2 
A   14
 C9 
A   15
 F3 
A   16
 F4 
M  END
>  <similarity>  (22) 
1.0

>  <smiles>  (22) 
Cc1ncccc1NC(=O)C(F)(F)C(F)F

>  <cmpd_id>  (22) 
ENAMINE:Z1344308501

>  <used_subnode>  (22) 
c1ccncc1

>  <used_synthon>  (22) 
O=C(N[Xe])C(F)(F)C(F)F

>  <ref_subnode>  (22) 
c1ccncc1

>  <ref_synthon>  (22) 
N#CCC(=O)N[Xe]

>  <fragmentA>  (22) 
x0416_0A

>  <fragmentB>  (22) 
x0310_0A

>  <HA>  (22) 
16

>  <HBD>  (22) 
1

>  <HBA>  (22) 
2

>  <MW>  (22) 
236.057275756

>  <TPSA>  (22) 
41.99

>  <LogP>  (22) 
2.2289199999999996

>  <RBs>  (22) 
3

>  <G_bound>  (22) 
-5.9419435110951255

>  <G_unbound>  (22) 
0.4688537617066653

>  <deltaG>  (22) 
-6.410797272801791

>  <comRMSD>  (22) 
0.4459511870967744

>  <substructure_overlap_check>  (22) 
True

>  <energy_ratio_check>  (22) 
True

>  <const_energy/unconst_energy>  (22) 
3.168638225164135

>  <sucos>  (22) 
0.5266352576394494

>  <interactions>  (22) 
HBDonor_SER-125,Hydrophobic_VAL-124,HBAcceptor_SER-105,Hydrophobic_PRO-107

>  <total_num_ints>  (22) 
4

>  <total_num_ints_nonhyd>  (22) 
2

>  <num_uniq_frag_ints>  (22) 
2

>  <num_repl_uniq_ints>  (22) 
2

>  <num_uniq_ints_lost>  (22) 
0

>  <num_new_uniq_ints>  (22) 
2

>  <int_check>  (22) 
True

>  <tversky>  (22) 
0.32369692720092624

>  <mean_vol_overlap>  (22) 
0.5797881132022082

>  <rotat_bonds>  (22) 
3

>  <ref_url>  (22) 
https://pubs.acs.org/doi/10.1021/acs.jcim.3c00276?fig=tgr1&ref=pdf

>  <submitter_name>  (22) 
Steph Wills

>  <submitter_institution>  (22) 
University of Oxford

>  <submitter_email>  (22) 
stephanie.wills@balliol.ox.ac.uk

>  <generation_date>  (22) 
2023-11-27

>  <method>  (22) 
FragNetv2_pt2

>  <original SMILES>  (22) 
Cc1ncccc1NC(=O)C(F)(F)C(F)F

>  <original_name>  (22) 
x0416_0A-x0310_0A_153465_B1X

>  <ref_mols>  (22) 
x0416_0A,x0310_0A

>  <ref_pdb>  (22) 
x0310_0A

>  <rationale>  (22) 
FragNet: 1 round bioisosteric merging incl c1ccncc1 and O=C(N[Xe])C(F)(F)C(F)F replacing N#CCC(=O)N[Xe]

$$$$
x0416_0A-x0310_0A_114872_B1X
     RDKit          3D

 15 15  0  0  0  0  0  0  0  0999 V2000
    9.9580    9.3070   22.9700 C   0  0  0  0  0  0  0  0  0  0  0  0
    9.0480   10.1960   23.8080 C   0  0  0  0  0  0  0  0  0  0  0  0
    8.0820    9.6910   24.5970 N   0  0  0  0  0  0  0  0  0  0  0  0
    7.3310   10.5780   25.2900 C   0  0  0  0  0  0  0  0  0  0  0  0
    7.5400   12.0920   25.1970 C   0  0  0  0  0  0  0  0  0  0  0  0
    8.6290   12.6340   24.3090 C   0  0  0  0  0  0  0  0  0  0  0  0
    9.3560   11.6720   23.6380 C   0  0  0  0  0  0  0  0  0  0  0  0
   10.4020   12.1650   22.7950 N   0  0  0  0  0  0  0  0  0  0  0  0
   11.1750   13.3150   23.1160 C   0  0  0  0  0  0  0  0  0  0  0  0
   11.1690   13.9560   24.4120 O   0  0  0  0  0  0  0  0  0  0  0  0
   11.9920   13.8190   21.9720 C   0  0  0  0  0  0  0  0  0  0  0  0
   12.8330   14.9640   22.3050 C   0  0  0  0  0  0  0  0  0  0  0  0
   11.9780   16.1820   22.4570 C   0  0  0  0  0  0  0  0  0  0  0  0
   13.5740   14.7050   23.4020 F   0  0  0  0  0  0  0  0  0  0  0  0
   13.6430   15.2170   21.2510 F   0  0  0  0  0  0  0  0  0  0  0  0
  1  2  1  0
  2  3  2  0
  3  4  1  0
  4  5  2  0
  5  6  1  0
  6  7  2  0
  7  8  1  0
  8  9  1  0
  9 10  2  0
  9 11  1  0
 11 12  1  0
 12 13  1  0
 12 14  1  0
 12 15  1  0
  7  2  1  0
A    1
 C1 
A    2
 C2 
A    3
 N1 
A    4
 C3 
A    5
 C4 
A    6
 C5 
A    7
 C6 
A    8
 N2 
A    9
 C7 
A   10
 O1 
A   11
 C8 
A   12
 C9 
A   13
 C10
A   14
 F1 
A   15
 F2 
M  END
>  <similarity>  (23) 
1.0

>  <smiles>  (23) 
Cc1ncccc1NC(=O)CC(C)(F)F

>  <cmpd_id>  (23) 
ENAMINE:Z1863855516

>  <used_subnode>  (23) 
c1ccncc1

>  <used_synthon>  (23) 
CC(F)(F)CC(=O)N[Xe]

>  <ref_subnode>  (23) 
c1ccncc1

>  <ref_synthon>  (23) 
N#CCC(=O)N[Xe]

>  <fragmentA>  (23) 
x0416_0A

>  <fragmentB>  (23) 
x0310_0A

>  <HA>  (23) 
15

>  <HBD>  (23) 
1

>  <HBA>  (23) 
2

>  <MW>  (23) 
214.091769444

>  <TPSA>  (23) 
41.99

>  <LogP>  (23) 
2.3738200000000003

>  <RBs>  (23) 
3

>  <G_bound>  (23) 
-7.814575652063714

>  <G_unbound>  (23) 
0.2968701565924821

>  <deltaG>  (23) 
-8.111445808656196

>  <comRMSD>  (23) 
0.48133356416675427

>  <substructure_overlap_check>  (23) 
True

>  <energy_ratio_check>  (23) 
True

>  <const_energy/unconst_energy>  (23) 
4.826373976996246

>  <sucos>  (23) 
0.529825277100314

>  <interactions>  (23) 
HBDonor_SER-125,Hydrophobic_TYR-90,Hydrophobic_VAL-124,Hydrophobic_TYR-89,Hydrophobic_PRO-107,Hydrophobic_HIS-21

>  <total_num_ints>  (23) 
6

>  <total_num_ints_nonhyd>  (23) 
1

>  <num_uniq_frag_ints>  (23) 
2

>  <num_repl_uniq_ints>  (23) 
2

>  <num_uniq_ints_lost>  (23) 
0

>  <num_new_uniq_ints>  (23) 
4

>  <int_check>  (23) 
True

>  <tversky>  (23) 
0.3545922176461098

>  <mean_vol_overlap>  (23) 
0.5856063714894925

>  <rotat_bonds>  (23) 
3

>  <ref_url>  (23) 
https://pubs.acs.org/doi/10.1021/acs.jcim.3c00276?fig=tgr1&ref=pdf

>  <submitter_name>  (23) 
Steph Wills

>  <submitter_institution>  (23) 
University of Oxford

>  <submitter_email>  (23) 
stephanie.wills@balliol.ox.ac.uk

>  <generation_date>  (23) 
2023-11-27

>  <method>  (23) 
FragNetv2_pt2

>  <original SMILES>  (23) 
Cc1ncccc1NC(=O)CC(C)(F)F

>  <original_name>  (23) 
x0416_0A-x0310_0A_114872_B1X

>  <ref_mols>  (23) 
x0416_0A,x0310_0A

>  <ref_pdb>  (23) 
x0310_0A

>  <rationale>  (23) 
FragNet: 1 round bioisosteric merging incl c1ccncc1 and CC(F)(F)CC(=O)N[Xe] replacing N#CCC(=O)N[Xe]

$$$$
x0416_0A-x0310_0A_91747_B1X
     RDKit          3D

 15 16  0  0  0  0  0  0  0  0999 V2000
    8.0470   15.0470   25.7910 O   0  0  0  0  0  0  0  0  0  0  0  0
    7.9230   13.8950   25.3790 C   0  0  0  0  0  0  0  0  0  0  0  0
    7.1190   13.0330   26.0110 C   0  0  0  0  0  0  0  0  0  0  0  0
    5.6430   13.0680   26.2470 C   0  0  0  0  0  0  0  0  0  0  0  0
    5.1920   11.8340   27.0120 C   0  0  1  0  0  0  0  0  0  0  0  0
    6.0250   11.7820   28.3140 C   0  0  0  0  0  0  0  0  0  0  0  0
    5.2040   12.5520   29.3250 C   0  0  0  0  0  0  0  0  0  0  0  0
    3.8920   12.8670   28.6470 C   0  0  0  0  0  0  0  0  0  0  0  0
    3.9140   12.0690   27.4540 O   0  0  0  0  0  0  0  0  0  0  0  0
    8.5940   13.4140   24.2750 N   0  0  0  0  0  0  0  0  0  0  0  0
    8.6870   12.0000   24.1480 C   0  0  0  0  0  0  0  0  0  0  0  0
    7.9810   10.7680   24.6980 C   0  0  0  0  0  0  0  0  0  0  0  0
    8.4420    9.4510   24.2660 N   0  0  0  0  0  0  0  0  0  0  0  0
    9.7100    9.6940   23.2200 S   0  0  0  0  0  0  0  0  0  0  0  0
    9.7090   11.3880   23.2730 C   0  0  0  0  0  0  0  0  0  0  0  0
  1  2  2  0
  2  3  1  0
  3  4  2  3
  4  5  1  0
  5  6  1  1
  6  7  1  0
  7  8  1  0
  8  9  1  0
  2 10  1  0
 10 11  1  0
 11 12  1  0
 12 13  2  0
 13 14  1  0
 14 15  1  0
  9  5  1  0
 15 11  2  0
A    1
 O1 
A    2
 C1 
A    3
 C2 
A    4
 C3 
A    5
 C4 
A    6
 C5 
A    7
 C6 
A    8
 C7 
A    9
 O2 
A   10
 N1 
A   11
 C8 
A   12
 C9 
A   13
 N2 
A   14
 S1 
A   15
 C10
M  END
>  <similarity>  (24) 
1.0

>  <smiles>  (24) 
O=C(C=CC1CCCO1)Nc1cnsc1

>  <cmpd_id>  (24) 
ENAMINE:Z2874021660

>  <used_subnode>  (24) 
C1CCOC1

>  <used_synthon>  (24) 
[Xe]c1cnsc1

>  <ref_subnode>  (24) 
C1CCOC1

>  <ref_synthon>  (24) 
[Xe]n1cccn1

>  <fragmentA>  (24) 
x0416_0A

>  <fragmentB>  (24) 
x0310_0A

>  <HA>  (24) 
15

>  <HBD>  (24) 
1

>  <HBA>  (24) 
4

>  <MW>  (24) 
224.061948624

>  <TPSA>  (24) 
51.22

>  <LogP>  (24) 
1.8167999999999997

>  <RBs>  (24) 
3

>  <G_bound>  (24) 
-4.326266534817672

>  <G_unbound>  (24) 
0.4264349978942307

>  <deltaG>  (24) 
-4.752701532711903

>  <comRMSD>  (24) 
1.277241913509156

>  <substructure_overlap_check>  (24) 
True

>  <energy_ratio_check>  (24) 
True

>  <const_energy/unconst_energy>  (24) 
3.768015849522561

>  <sucos>  (24) 
0.5299193334649042

>  <interactions>  (24) 
Hydrophobic_VAL-124,HBAcceptor_SER-105,Hydrophobic_PRO-107

>  <total_num_ints>  (24) 
3

>  <total_num_ints_nonhyd>  (24) 
1

>  <num_uniq_frag_ints>  (24) 
2

>  <num_repl_uniq_ints>  (24) 
2

>  <num_uniq_ints_lost>  (24) 
0

>  <num_new_uniq_ints>  (24) 
1

>  <int_check>  (24) 
True

>  <tversky>  (24) 
0.31543578971202435

>  <mean_vol_overlap>  (24) 
0.5919199490336117

>  <rotat_bonds>  (24) 
3

>  <ref_url>  (24) 
https://pubs.acs.org/doi/10.1021/acs.jcim.3c00276?fig=tgr1&ref=pdf

>  <submitter_name>  (24) 
Steph Wills

>  <submitter_institution>  (24) 
University of Oxford

>  <submitter_email>  (24) 
stephanie.wills@balliol.ox.ac.uk

>  <generation_date>  (24) 
2023-11-27

>  <method>  (24) 
FragNetv2_pt2

>  <original SMILES>  (24) 
O=C(C=CC1CCCO1)Nc1cnsc1

>  <original_name>  (24) 
x0416_0A-x0310_0A_91747_B1X

>  <ref_mols>  (24) 
x0416_0A,x0310_0A

>  <ref_pdb>  (24) 
x0310_0A

>  <rationale>  (24) 
FragNet: 1 round bioisosteric merging incl C1CCOC1 and [Xe]c1cnsc1 replacing [Xe]n1cccn1

$$$$
x0416_0A-x0310_0A_26413_B1X
     RDKit          3D

 19 20  0  0  0  0  0  0  0  0999 V2000
   12.2850   14.1590   22.8090 C   0  0  0  0  0  0  0  0  0  0  0  0
   11.1270   13.7650   23.7050 C   0  0  0  0  0  0  0  0  0  0  0  0
   11.0860   14.0890   24.8800 O   0  0  0  0  0  0  0  0  0  0  0  0
   10.1980   13.0350   23.0280 N   0  0  0  0  0  0  0  0  0  0  0  0
   10.0040   11.6760   23.2280 C   0  0  0  0  0  0  0  0  0  0  0  0
   11.1440   10.8100   22.6980 C   0  0  0  0  0  0  0  0  0  0  0  0
   10.9270    9.3330   22.8920 C   0  0  0  0  0  0  0  0  0  0  0  0
    9.8230    8.8230   23.4780 N   0  0  0  0  0  0  0  0  0  0  0  0
    8.8180    9.7530   23.9630 C   0  0  0  0  0  0  0  0  0  0  0  0
    8.8780   11.1340   23.8590 C   0  0  0  0  0  0  0  0  0  0  0  0
    7.8410   11.9380   24.3760 N   0  0  0  0  0  0  0  0  0  0  0  0
    6.9910   11.4630   25.3540 C   0  0  0  0  0  0  0  0  0  0  0  0
    6.9380   10.2890   25.6730 O   0  0  0  0  0  0  0  0  0  0  0  0
    6.0880   12.4810   26.0240 C   0  0  0  0  0  0  0  0  0  0  0  0
    5.2810   11.7540   27.0950 C   0  0  1  0  0  0  0  0  0  0  0  0
    6.1230   11.9420   28.3640 C   0  0  0  0  0  0  0  0  0  0  0  0
    5.2590   12.6450   29.3960 C   0  0  0  0  0  0  0  0  0  0  0  0
    3.8960   12.6980   28.7310 C   0  0  0  0  0  0  0  0  0  0  0  0
    4.0600   12.4670   27.3140 O   0  0  0  0  0  0  0  0  0  0  0  0
  1  2  1  0
  2  3  2  0
  2  4  1  0
  4  5  1  0
  5  6  2  0
  6  7  1  0
  7  8  2  0
  8  9  1  0
  9 10  2  0
 10 11  1  0
 11 12  1  0
 12 13  2  0
 12 14  1  0
 15 14  1  6
 15 16  1  0
 16 17  1  0
 17 18  1  0
 18 19  1  0
 10  5  1  0
 19 15  1  0
A    1
 C1 
A    2
 C2 
A    3
 O1 
A    4
 N1 
A    5
 C3 
A    6
 C4 
A    7
 C5 
A    8
 N2 
A    9
 C6 
A   10
 C7 
A   11
 N3 
A   12
 C8 
A   13
 O2 
A   14
 C9 
A   15
 C10
A   16
 C11
A   17
 C12
A   18
 C13
A   19
 O3 
M  END
>  <similarity>  (25) 
1.0

>  <smiles>  (25) 
CC(=O)Nc1ccncc1NC(=O)CC1CCCO1

>  <cmpd_id>  (25) 
ENAMINE:Z1739758372

>  <used_subnode>  (25) 
C1CCOC1

>  <used_synthon>  (25) 
CC(=O)N[Xe]

>  <ref_subnode>  (25) 
C1CCOC1

>  <ref_synthon>  (25) 
N#CCC(=O)N[Xe]

>  <fragmentA>  (25) 
x0416_0A

>  <fragmentB>  (25) 
x0310_0A

>  <HA>  (25) 
19

>  <HBD>  (25) 
2

>  <HBA>  (25) 
4

>  <MW>  (25) 
263.126991404

>  <TPSA>  (25) 
80.32000000000001

>  <LogP>  (25) 
1.5475999999999996

>  <RBs>  (25) 
4

>  <G_bound>  (25) 
-6.085204859031249

>  <G_unbound>  (25) 
2.5754260217271217

>  <deltaG>  (25) 
-8.66063088075837

>  <comRMSD>  (25) 
0.7619475087581685

>  <substructure_overlap_check>  (25) 
True

>  <energy_ratio_check>  (25) 
True

>  <const_energy/unconst_energy>  (25) 
3.681320307452482

>  <sucos>  (25) 
0.530085743926143

>  <interactions>  (25) 
Hydrophobic_CYS-110,Hydrophobic_VAL-124,HBAcceptor_SER-105,Hydrophobic_PRO-107,Hydrophobic_HIS-21

>  <total_num_ints>  (25) 
5

>  <total_num_ints_nonhyd>  (25) 
1

>  <num_uniq_frag_ints>  (25) 
2

>  <num_repl_uniq_ints>  (25) 
2

>  <num_uniq_ints_lost>  (25) 
0

>  <num_new_uniq_ints>  (25) 
3

>  <int_check>  (25) 
True

>  <tversky>  (25) 
0.369489052650811

>  <mean_vol_overlap>  (25) 
0.5756823363688403

>  <rotat_bonds>  (25) 
4

>  <ref_url>  (25) 
https://pubs.acs.org/doi/10.1021/acs.jcim.3c00276?fig=tgr1&ref=pdf

>  <submitter_name>  (25) 
Steph Wills

>  <submitter_institution>  (25) 
University of Oxford

>  <submitter_email>  (25) 
stephanie.wills@balliol.ox.ac.uk

>  <generation_date>  (25) 
2023-11-27

>  <method>  (25) 
FragNetv2_pt2

>  <original SMILES>  (25) 
CC(=O)Nc1ccncc1NC(=O)CC1CCCO1

>  <original_name>  (25) 
x0416_0A-x0310_0A_26413_B1X

>  <ref_mols>  (25) 
x0416_0A,x0310_0A

>  <ref_pdb>  (25) 
x0310_0A

>  <rationale>  (25) 
FragNet: 1 round bioisosteric merging incl C1CCOC1 and CC(=O)N[Xe] replacing N#CCC(=O)N[Xe]

$$$$
x0416_0A-x0310_0A_153868_B1X
     RDKit          3D

 15 15  0  0  0  0  0  0  0  0999 V2000
    6.2910   10.3620   26.0150 C   0  0  0  0  0  0  0  0  0  0  0  0
    7.2660   10.9050   25.2860 C   0  0  0  0  0  0  0  0  0  0  0  0
    7.4670   12.4020   25.2520 C   0  0  0  0  0  0  0  0  0  0  0  0
    8.6230   12.8290   24.3790 C   0  0  0  0  0  0  0  0  0  0  0  0
    9.4290   11.7890   23.6570 C   0  0  0  0  0  0  0  0  0  0  0  0
   10.4580   12.2770   22.9190 N   0  0  0  0  0  0  0  0  0  0  0  0
   11.1230   13.4150   23.3910 C   0  0  0  0  0  0  0  0  0  0  0  0
   10.8770   13.9150   24.4830 O   0  0  0  0  0  0  0  0  0  0  0  0
   12.1020   14.1430   22.7630 C   0  0  0  0  0  0  0  0  0  0  0  0
   13.2280   14.1600   23.5060 F   0  0  0  0  0  0  0  0  0  0  0  0
   11.7580   15.4540   22.6350 F   0  0  0  0  0  0  0  0  0  0  0  0
   12.3770   13.7250   21.5100 F   0  0  0  0  0  0  0  0  0  0  0  0
    9.0960   10.4360   23.7910 C   0  0  0  0  0  0  0  0  0  0  0  0
    9.8680    9.5210   23.0860 C   0  0  0  0  0  0  0  0  0  0  0  0
    8.0550   10.0390   24.5810 N   0  0  0  0  0  0  0  0  0  0  0  0
  1  2  1  0
  2  3  2  0
  3  4  1  0
  4  5  2  0
  5  6  1  0
  6  7  1  0
  7  8  2  0
  7  9  1  0
  9 10  1  0
  9 11  1  0
  9 12  1  0
  5 13  1  0
 13 14  1  0
 13 15  2  0
 15  2  1  0
A    1
 C1 
A    2
 C2 
A    3
 C3 
A    4
 C4 
A    5
 C5 
A    6
 N1 
A    7
 C6 
A    8
 O1 
A    9
 C7 
A   10
 F1 
A   11
 F2 
A   12
 F3 
A   13
 C8 
A   14
 C9 
A   15
 N2 
M  END
>  <similarity>  (26) 
1.0

>  <smiles>  (26) 
Cc1ccc(NC(=O)C(F)(F)F)c(C)n1

>  <cmpd_id>  (26) 
ENAMINE:Z1393356942,CHEMSPACE-BB:CSMB00012695441

>  <used_subnode>  (26) 
c1ccncc1

>  <used_synthon>  (26) 
O=C(N[Xe])C(F)(F)F

>  <ref_subnode>  (26) 
c1ccncc1

>  <ref_synthon>  (26) 
N#CCC(=O)N[Xe]

>  <fragmentA>  (26) 
x0416_0A

>  <fragmentB>  (26) 
x0310_0A

>  <HA>  (26) 
15

>  <HBD>  (26) 
1

>  <HBA>  (26) 
2

>  <MW>  (26) 
218.066697568

>  <TPSA>  (26) 
41.99

>  <LogP>  (26) 
2.1992399999999996

>  <RBs>  (26) 
1

>  <G_bound>  (26) 
-7.0367473117615305

>  <G_unbound>  (26) 
0.20632049359127086

>  <deltaG>  (26) 
-7.243067805352801

>  <comRMSD>  (26) 
0.3979604488512256

>  <substructure_overlap_check>  (26) 
True

>  <energy_ratio_check>  (26) 
True

>  <const_energy/unconst_energy>  (26) 
4.774457726758638

>  <sucos>  (26) 
0.5304547977951629

>  <interactions>  (26) 
HBDonor_SER-125,Hydrophobic_VAL-124,Hydrophobic_PRO-107

>  <total_num_ints>  (26) 
3

>  <total_num_ints_nonhyd>  (26) 
1

>  <num_uniq_frag_ints>  (26) 
2

>  <num_repl_uniq_ints>  (26) 
2

>  <num_uniq_ints_lost>  (26) 
0

>  <num_new_uniq_ints>  (26) 
1

>  <int_check>  (26) 
True

>  <tversky>  (26) 
0.36254893617301887

>  <mean_vol_overlap>  (26) 
0.6281093589754263

>  <rotat_bonds>  (26) 
1

>  <ref_url>  (26) 
https://pubs.acs.org/doi/10.1021/acs.jcim.3c00276?fig=tgr1&ref=pdf

>  <submitter_name>  (26) 
Steph Wills

>  <submitter_institution>  (26) 
University of Oxford

>  <submitter_email>  (26) 
stephanie.wills@balliol.ox.ac.uk

>  <generation_date>  (26) 
2023-11-27

>  <method>  (26) 
FragNetv2_pt2

>  <original SMILES>  (26) 
Cc1ccc(NC(=O)C(F)(F)F)c(C)n1

>  <original_name>  (26) 
x0416_0A-x0310_0A_153868_B1X

>  <ref_mols>  (26) 
x0416_0A,x0310_0A

>  <ref_pdb>  (26) 
x0310_0A

>  <rationale>  (26) 
FragNet: 1 round bioisosteric merging incl c1ccncc1 and O=C(N[Xe])C(F)(F)F replacing N#CCC(=O)N[Xe]

$$$$
x0416_0A-x0310_0A_119509_B1X
     RDKit          3D

 19 19  0  0  0  0  0  0  0  0999 V2000
    9.7810    9.3850   23.0750 C   0  0  0  0  0  0  0  0  0  0  0  0
    8.9770   10.4430   23.8160 C   0  0  0  0  0  0  0  0  0  0  0  0
    7.8500   10.0880   24.8010 C   0  0  0  0  0  0  0  0  0  0  0  0
    7.1060   11.2080   25.4770 C   0  0  0  0  0  0  0  0  0  0  0  0
    6.0910   11.0520   26.3660 C   0  0  0  0  0  0  0  0  0  0  0  0
    5.1130   11.9860   26.1940 F   0  0  0  0  0  0  0  0  0  0  0  0
    5.4600    9.8540   26.3710 F   0  0  0  0  0  0  0  0  0  0  0  0
    6.4630   11.2530   27.6590 F   0  0  0  0  0  0  0  0  0  0  0  0
    7.4130   12.4560   25.2280 N   0  0  0  0  0  0  0  0  0  0  0  0
    8.4140   12.7650   24.3640 C   0  0  0  0  0  0  0  0  0  0  0  0
    9.1880   11.9020   23.6720 C   0  0  0  0  0  0  0  0  0  0  0  0
   10.1010   12.4380   22.9260 N   0  0  0  0  0  0  0  0  0  0  0  0
   10.9990   13.1250   23.5950 C   0  0  0  0  0  0  0  0  0  0  0  0
   10.8710   13.4250   24.7690 O   0  0  0  0  0  0  0  0  0  0  0  0
   12.2080   13.5730   22.8480 C   0  0  0  0  0  0  0  0  0  0  0  0
   12.3930   15.2490   23.4130 S   0  0  0  0  0  0  0  0  0  0  0  0
   12.1110   16.0340   21.8430 C   0  0  0  0  0  0  0  0  0  0  0  0
   10.9650   15.5940   21.2730 F   0  0  0  0  0  0  0  0  0  0  0  0
   13.1120   15.6200   21.0370 F   0  0  0  0  0  0  0  0  0  0  0  0
  1  2  1  0
  2  3  2  0
  3  4  1  0
  4  5  1  0
  5  6  1  0
  5  7  1  0
  5  8  1  0
  4  9  2  0
  9 10  1  0
 10 11  2  0
 11 12  1  0
 12 13  1  0
 13 14  2  0
 13 15  1  0
 15 16  1  0
 16 17  1  0
 17 18  1  0
 17 19  1  0
 11  2  1  0
A    1
 C1 
A    2
 C2 
A    3
 C3 
A    4
 C4 
A    5
 C5 
A    6
 F1 
A    7
 F2 
A    8
 F3 
A    9
 N1 
A   10
 C6 
A   11
 C7 
A   12
 N2 
A   13
 C8 
A   14
 O1 
A   15
 C9 
A   16
 S1 
A   17
 C10
A   18
 F4 
A   19
 F5 
M  END
>  <similarity>  (27) 
1.0

>  <smiles>  (27) 
Cc1cc(C(F)(F)F)ncc1NC(=O)CSC(F)F

>  <cmpd_id>  (27) 
ENAMINE:Z2321371117

>  <used_subnode>  (27) 
c1ccncc1

>  <used_synthon>  (27) 
O=C(CSC(F)F)N[Xe]

>  <ref_subnode>  (27) 
c1ccncc1

>  <ref_synthon>  (27) 
N#CCC(=O)N[Xe]

>  <fragmentA>  (27) 
x0416_0A

>  <fragmentB>  (27) 
x0310_0A

>  <HA>  (27) 
19

>  <HBD>  (27) 
1

>  <HBA>  (27) 
3

>  <MW>  (27) 
300.035575008

>  <TPSA>  (27) 
41.99

>  <LogP>  (27) 
3.3031200000000007

>  <RBs>  (27) 
4

>  <G_bound>  (27) 
-5.629221487587187

>  <G_unbound>  (27) 
2.3279308736119066

>  <deltaG>  (27) 
-7.9571523611990935

>  <comRMSD>  (27) 
1.4915035663439615

>  <substructure_overlap_check>  (27) 
True

>  <energy_ratio_check>  (27) 
True

>  <const_energy/unconst_energy>  (27) 
4.821255371792824

>  <sucos>  (27) 
0.5310866209328898

>  <interactions>  (27) 
HBDonor_SER-125,Hydrophobic_VAL-124,Hydrophobic_TYR-89,Hydrophobic_PRO-107,Hydrophobic_HIS-21

>  <total_num_ints>  (27) 
5

>  <total_num_ints_nonhyd>  (27) 
1

>  <num_uniq_frag_ints>  (27) 
2

>  <num_repl_uniq_ints>  (27) 
2

>  <num_uniq_ints_lost>  (27) 
0

>  <num_new_uniq_ints>  (27) 
3

>  <int_check>  (27) 
True

>  <tversky>  (27) 
0.30200677582681995

>  <mean_vol_overlap>  (27) 
0.5530044352525296

>  <rotat_bonds>  (27) 
4

>  <ref_url>  (27) 
https://pubs.acs.org/doi/10.1021/acs.jcim.3c00276?fig=tgr1&ref=pdf

>  <submitter_name>  (27) 
Steph Wills

>  <submitter_institution>  (27) 
University of Oxford

>  <submitter_email>  (27) 
stephanie.wills@balliol.ox.ac.uk

>  <generation_date>  (27) 
2023-11-27

>  <method>  (27) 
FragNetv2_pt2

>  <original SMILES>  (27) 
Cc1cc(C(F)(F)F)ncc1NC(=O)CSC(F)F

>  <original_name>  (27) 
x0416_0A-x0310_0A_119509_B1X

>  <ref_mols>  (27) 
x0416_0A,x0310_0A

>  <ref_pdb>  (27) 
x0310_0A

>  <rationale>  (27) 
FragNet: 1 round bioisosteric merging incl c1ccncc1 and O=C(CSC(F)F)N[Xe] replacing N#CCC(=O)N[Xe]

$$$$
x0416_0A-x0310_0A_151722_B1X
     RDKit          3D

 12 12  0  0  0  0  0  0  0  0999 V2000
   12.3660   15.1820   22.5440 C   0  0  0  0  0  0  0  0  0  0  0  0
   12.0890   13.8730   22.6470 C   0  0  0  0  0  0  0  0  0  0  0  0
   10.9450   13.3670   23.4700 C   0  0  0  0  0  0  0  0  0  0  0  0
   10.8500   13.6630   24.6510 O   0  0  0  0  0  0  0  0  0  0  0  0
   10.0540   12.5790   22.8190 N   0  0  0  0  0  0  0  0  0  0  0  0
    9.1980   11.8890   23.5990 C   0  0  0  0  0  0  0  0  0  0  0  0
    8.1440   12.5850   24.5130 C   0  0  0  0  0  0  0  0  0  0  0  0
    7.2780   11.6200   25.3130 C   0  0  0  0  0  0  0  0  0  0  0  0
    7.4060   10.2700   25.2450 N   0  0  0  0  0  0  0  0  0  0  0  0
    8.4120    9.7540   24.3650 C   0  0  0  0  0  0  0  0  0  0  0  0
    9.2630   10.4720   23.5830 C   0  0  0  0  0  0  0  0  0  0  0  0
   10.1720    9.5230   22.7910 C   0  0  0  0  0  0  0  0  0  0  0  0
  1  2  1  0
  2  3  1  0
  3  4  2  0
  3  5  1  0
  5  6  1  0
  6  7  2  0
  7  8  1  0
  8  9  2  0
  9 10  1  0
 10 11  2  0
 11 12  1  0
 11  6  1  0
A    1
 C1 
A    2
 C2 
A    3
 C3 
A    4
 O1 
A    5
 N1 
A    6
 C4 
A    7
 C5 
A    8
 C6 
A    9
 N2 
A   10
 C7 
A   11
 C8 
A   12
 C9 
M  END
>  <similarity>  (28) 
1.0

>  <smiles>  (28) 
CCC(=O)Nc1ccncc1C

>  <cmpd_id>  (28) 
CHEMSPACE-BB:CSMB00011908583,ENAMINE:Z1148747961

>  <used_subnode>  (28) 
c1ccncc1

>  <used_synthon>  (28) 
CCC(=O)N[Xe]

>  <ref_subnode>  (28) 
c1ccncc1

>  <ref_synthon>  (28) 
N#CCC(=O)N[Xe]

>  <fragmentA>  (28) 
x0416_0A

>  <fragmentB>  (28) 
x0310_0A

>  <HA>  (28) 
12

>  <HBD>  (28) 
1

>  <HBA>  (28) 
2

>  <MW>  (28) 
164.094963004

>  <TPSA>  (28) 
41.99

>  <LogP>  (28) 
1.7385199999999998

>  <RBs>  (28) 
2

>  <G_bound>  (28) 
-9.941367593918923

>  <G_unbound>  (28) 
0.11856779308327436

>  <deltaG>  (28) 
-10.059935387002197

>  <comRMSD>  (28) 
0.7746383564208723

>  <substructure_overlap_check>  (28) 
True

>  <energy_ratio_check>  (28) 
True

>  <const_energy/unconst_energy>  (28) 
4.565438531109121

>  <sucos>  (28) 
0.5311754688713425

>  <interactions>  (28) 
HBDonor_SER-125,Hydrophobic_TYR-90,Hydrophobic_VAL-124,Hydrophobic_TYR-89,Hydrophobic_PRO-107,Hydrophobic_HIS-21

>  <total_num_ints>  (28) 
6

>  <total_num_ints_nonhyd>  (28) 
1

>  <num_uniq_frag_ints>  (28) 
2

>  <num_repl_uniq_ints>  (28) 
2

>  <num_uniq_ints_lost>  (28) 
0

>  <num_new_uniq_ints>  (28) 
4

>  <int_check>  (28) 
True

>  <tversky>  (28) 
0.3786700138693862

>  <mean_vol_overlap>  (28) 
0.6837489164422362

>  <rotat_bonds>  (28) 
2

>  <ref_url>  (28) 
https://pubs.acs.org/doi/10.1021/acs.jcim.3c00276?fig=tgr1&ref=pdf

>  <submitter_name>  (28) 
Steph Wills

>  <submitter_institution>  (28) 
University of Oxford

>  <submitter_email>  (28) 
stephanie.wills@balliol.ox.ac.uk

>  <generation_date>  (28) 
2023-11-27

>  <method>  (28) 
FragNetv2_pt2

>  <original SMILES>  (28) 
CCC(=O)Nc1ccncc1C

>  <original_name>  (28) 
x0416_0A-x0310_0A_151722_B1X

>  <ref_mols>  (28) 
x0416_0A,x0310_0A

>  <ref_pdb>  (28) 
x0310_0A

>  <rationale>  (28) 
FragNet: 1 round bioisosteric merging incl c1ccncc1 and CCC(=O)N[Xe] replacing N#CCC(=O)N[Xe]

$$$$
x0310_0A-x0416_0A_27532_B1X
     RDKit          3D

 17 18  0  0  0  0  0  0  0  0999 V2000
    5.5140   12.9250   30.9920 C   0  0  0  0  0  0  0  0  0  0  0  0
    5.2190   12.4960   29.7240 C   0  0  0  0  0  0  0  0  0  0  0  0
    3.7550   12.6940   29.3150 C   0  0  0  0  0  0  0  0  0  0  0  0
    3.6820   12.1180   28.0120 O   0  0  0  0  0  0  0  0  0  0  0  0
    5.0280   12.0140   27.5390 N   0  0  0  0  0  0  0  0  0  0  0  0
    5.2680   12.8920   26.5420 C   0  0  0  0  0  0  0  0  0  0  0  0
    5.0690   14.1020   26.5840 O   0  0  0  0  0  0  0  0  0  0  0  0
    5.7510   12.2000   25.5230 N   0  0  0  0  0  0  0  0  0  0  0  0
    6.5640   11.0080   25.7680 C   0  0  0  0  0  0  0  0  0  0  0  0
    7.6410   11.0650   24.9230 C   0  0  0  0  0  0  0  0  0  0  0  0
    8.0320   12.2650   24.4370 C   0  0  0  0  0  0  0  0  0  0  0  0
    9.1550   12.0870   23.5900 C   0  0  0  0  0  0  0  0  0  0  0  0
    9.3660   10.7890   23.6210 N   0  0  0  0  0  0  0  0  0  0  0  0
   10.3290   10.1210   22.9850 C   0  0  0  0  0  0  0  0  0  0  0  0
    9.7580    8.8830   22.4730 C   0  0  0  0  0  0  0  0  0  0  0  0
    8.4750   10.0930   24.4160 N   0  0  0  0  0  0  0  0  0  0  0  0
    5.9770   11.8750   28.6300 C   0  0  0  0  0  0  0  0  0  0  0  0
  1  2  2  3
  2  3  1  0
  3  4  1  0
  4  5  1  0
  5  6  1  0
  6  7  2  0
  6  8  1  0
  8  9  1  0
  9 10  1  0
 10 11  1  0
 11 12  2  0
 12 13  1  0
 13 14  1  0
 14 15  1  0
 13 16  1  0
  5 17  1  0
 17  2  1  0
 16 10  2  0
A    1
 C1 
A    2
 C2 
A    3
 C3 
A    4
 O1 
A    5
 N1 
A    6
 C4 
A    7
 O2 
A    8
 N2 
A    9
 C5 
A   10
 C6 
A   11
 C7 
A   12
 C8 
A   13
 N3 
A   14
 C9 
A   15
 C10
A   16
 N4 
A   17
 C11
M  END
>  <similarity>  (29) 
1.0

>  <smiles>  (29) 
C=C1CON(C(=O)NCc2ccn(CC)n2)C1

>  <cmpd_id>  (29) 
ENAMINE:Z3189486499

>  <used_subnode>  (29) 
c1cn[nH]c1

>  <used_synthon>  (29) 
C=C1CON([Xe])C1

>  <ref_subnode>  (29) 
c1cn[nH]c1

>  <ref_synthon>  (29) 
[Xe]C1CCCO1

>  <fragmentA>  (29) 
x0310_0A

>  <fragmentB>  (29) 
x0416_0A

>  <HA>  (29) 
17

>  <HBD>  (29) 
1

>  <HBA>  (29) 
4

>  <MW>  (29) 
236.127325752

>  <TPSA>  (29) 
59.39

>  <LogP>  (29) 
0.9159999999999999

>  <RBs>  (29) 
3

>  <G_bound>  (29) 
-3.936070491167924

>  <G_unbound>  (29) 
0.6865226710102351

>  <deltaG>  (29) 
-4.622593162178159

>  <comRMSD>  (29) 
1.3194884365064212

>  <substructure_overlap_check>  (29) 
True

>  <energy_ratio_check>  (29) 
True

>  <const_energy/unconst_energy>  (29) 
3.3036469043361403

>  <sucos>  (29) 
0.5323527363246733

>  <interactions>  (29) 
Hydrophobic_VAL-124,HBDonor_GLY-127,Hydrophobic_PRO-107

>  <total_num_ints>  (29) 
3

>  <total_num_ints_nonhyd>  (29) 
1

>  <num_uniq_frag_ints>  (29) 
2

>  <num_repl_uniq_ints>  (29) 
2

>  <num_uniq_ints_lost>  (29) 
0

>  <num_new_uniq_ints>  (29) 
1

>  <int_check>  (29) 
True

>  <tversky>  (29) 
0.26126821470358175

>  <mean_vol_overlap>  (29) 
0.5665974823991823

>  <rotat_bonds>  (29) 
3

>  <ref_url>  (29) 
https://pubs.acs.org/doi/10.1021/acs.jcim.3c00276?fig=tgr1&ref=pdf

>  <submitter_name>  (29) 
Steph Wills

>  <submitter_institution>  (29) 
University of Oxford

>  <submitter_email>  (29) 
stephanie.wills@balliol.ox.ac.uk

>  <generation_date>  (29) 
2023-11-27

>  <method>  (29) 
FragNetv2_pt2

>  <original SMILES>  (29) 
C=C1CON(C(=O)NCc2ccn(CC)n2)C1

>  <original_name>  (29) 
x0310_0A-x0416_0A_27532_B1X

>  <ref_mols>  (29) 
x0310_0A,x0416_0A

>  <ref_pdb>  (29) 
x0310_0A

>  <rationale>  (29) 
FragNet: 1 round bioisosteric merging incl c1cn[nH]c1 and C=C1CON([Xe])C1 replacing [Xe]C1CCCO1

$$$$
x0310_0A-x0416_0A_3479_PXX
     RDKit          3D

 17 18  0  0  0  0  0  0  0  0999 V2000
    8.2030   14.3540   25.2970 O   0  0  0  0  0  0  0  0  0  0  0  0
    7.4580   13.4270   25.0060 C   0  0  0  0  0  0  0  0  0  0  0  0
    6.0890   13.5080   24.9780 N   0  0  0  0  0  0  0  0  0  0  0  0
    5.3030   13.7690   26.1670 C   0  0  1  0  0  0  0  0  0  0  0  0
    3.9680   14.4880   25.8290 C   0  0  0  0  0  0  0  0  0  0  0  0
    3.1090   14.5250   26.9770 O   0  0  0  0  0  0  0  0  0  0  0  0
    5.1200   12.3570   26.8390 C   0  0  1  0  0  0  0  0  0  0  0  0
    6.0880   12.1100   27.9970 C   0  0  0  0  0  0  0  0  0  0  0  0
    5.2670   12.3080   29.1350 C   0  0  0  0  0  0  0  0  0  0  0  0
    3.9190   12.4660   28.8960 C   0  0  0  0  0  0  0  0  0  0  0  0
    3.7960   12.2560   27.4610 O   0  0  0  0  0  0  0  0  0  0  0  0
    7.9470   12.0880   24.6580 C   0  0  0  0  0  0  0  0  0  0  0  0
    9.0230   11.7120   23.7050 C   0  0  0  0  0  0  0  0  0  0  0  0
    9.1030   10.2160   23.7290 C   0  0  0  0  0  0  0  0  0  0  0  0
   10.2170    9.0870   22.7770 Br  0  0  0  0  0  0  0  0  0  0  0  0
    8.0810    9.8700   24.6880 N   0  0  0  0  0  0  0  0  0  0  0  0
    7.4260   10.9550   25.2110 N   0  0  0  0  0  0  0  0  0  0  0  0
  1  2  2  0
  2  3  1  0
  3  4  1  0
  4  5  1  6
  5  6  1  0
  4  7  1  0
  7  8  1  1
  8  9  1  0
  9 10  1  0
 10 11  1  0
  2 12  1  0
 12 13  1  0
 13 14  2  0
 14 15  1  0
 14 16  1  0
 16 17  1  0
 11  7  1  0
 17 12  2  0
A    1
 O1 
A    2
 C1 
A    3
 N1 
A    4
 C2 
A    5
 C3 
A    6
 O2 
A    7
 C4 
A    8
 C5 
A    9
 C6 
A   10
 C7 
A   11
 O3 
A   12
 C8 
A   13
 C9 
A   14
 C10
A   15
BR1 
A   16
 N2 
A   17
 N3 
M  END
>  <similarity>  (30) 
NA

>  <smiles>  (30) 
O=C(NC(CO)C1CCCO1)c1cc(Br)[nH]n1

>  <cmpd_id>  (30) 
ENAMINE:Z2637794605

>  <used_subnode>  (30) 
NA

>  <used_synthon>  (30) 
NA

>  <ref_subnode>  (30) 
c1cn[nH]c1

>  <ref_synthon>  (30) 
[Xe]C1CCCO1

>  <fragmentA>  (30) 
x0310_0A

>  <fragmentB>  (30) 
x0416_0A

>  <HA>  (30) 
17

>  <HBD>  (30) 
3

>  <HBA>  (30) 
4

>  <MW>  (30) 
303.021853408

>  <TPSA>  (30) 
87.24

>  <LogP>  (30) 
0.44189999999999957

>  <RBs>  (30) 
4

>  <G_bound>  (30) 
-2.210330617848702

>  <G_unbound>  (30) 
1.3723987144683476

>  <deltaG>  (30) 
-3.5827293323170495

>  <comRMSD>  (30) 
0.4369683054105661

>  <substructure_overlap_check>  (30) 
True

>  <energy_ratio_check>  (30) 
True

>  <const_energy/unconst_energy>  (30) 
2.485825536322735

>  <sucos>  (30) 
0.5324609418580999

>  <interactions>  (30) 
HBDonor_GLY-127,Hydrophobic_VAL-124,Hydrophobic_PRO-107,HBDonor_SER-105

>  <total_num_ints>  (30) 
4

>  <total_num_ints_nonhyd>  (30) 
2

>  <num_uniq_frag_ints>  (30) 
2

>  <num_repl_uniq_ints>  (30) 
2

>  <num_uniq_ints_lost>  (30) 
0

>  <num_new_uniq_ints>  (30) 
2

>  <int_check>  (30) 
True

>  <tversky>  (30) 
0.27700405917797355

>  <mean_vol_overlap>  (30) 
0.5546435714648121

>  <rotat_bonds>  (30) 
4

>  <ref_url>  (30) 
https://pubs.acs.org/doi/10.1021/acs.jcim.3c00276?fig=tgr1&ref=pdf

>  <submitter_name>  (30) 
Steph Wills

>  <submitter_institution>  (30) 
University of Oxford

>  <submitter_email>  (30) 
stephanie.wills@balliol.ox.ac.uk

>  <generation_date>  (30) 
2023-11-27

>  <method>  (30) 
FragNetv2_pt2

>  <original SMILES>  (30) 
O=C(NC(CO)C1CCCO1)c1cc(Br)[nH]n1

>  <original_name>  (30) 
x0310_0A-x0416_0A_3479_PXX

>  <ref_mols>  (30) 
x0310_0A,x0416_0A

>  <ref_pdb>  (30) 
x0310_0A

>  <rationale>  (30) 
FragNet: perfect merge incl c1cn[nH]c1,[Xe]C1CCCO1

$$$$
x0416_0A-x0310_0A_113717_B1X
     RDKit          3D

 15 15  0  0  0  0  0  0  0  0999 V2000
   10.1340    9.5960   22.8200 C   0  0  0  0  0  0  0  0  0  0  0  0
    9.1950   10.4190   23.6280 C   0  0  0  0  0  0  0  0  0  0  0  0
    8.3540    9.7270   24.4480 C   0  0  0  0  0  0  0  0  0  0  0  0
    7.4510   10.3710   25.2260 N   0  0  0  0  0  0  0  0  0  0  0  0
    7.3780   11.6970   25.1950 C   0  0  0  0  0  0  0  0  0  0  0  0
    8.1970   12.4650   24.3900 C   0  0  0  0  0  0  0  0  0  0  0  0
    9.1330   11.8220   23.5820 C   0  0  0  0  0  0  0  0  0  0  0  0
    9.9980   12.4800   22.7390 N   0  0  0  0  0  0  0  0  0  0  0  0
   11.0410   13.3280   23.2430 C   0  0  0  0  0  0  0  0  0  0  0  0
   11.1690   13.7160   24.3980 O   0  0  0  0  0  0  0  0  0  0  0  0
   11.9680   13.7070   22.0960 C   0  0  0  0  0  0  0  0  0  0  0  0
   12.7840   14.8840   22.5210 C   0  0  0  0  0  0  0  0  0  0  0  0
   11.9260   16.0670   22.6030 C   0  0  0  0  0  0  0  0  0  0  0  0
   13.6550   15.1600   21.5330 F   0  0  0  0  0  0  0  0  0  0  0  0
   13.4350   14.6180   23.6730 F   0  0  0  0  0  0  0  0  0  0  0  0
  1  2  1  0
  2  3  2  0
  3  4  1  0
  4  5  2  0
  5  6  1  0
  6  7  2  0
  7  8  1  0
  8  9  1  0
  9 10  2  0
  9 11  1  0
 11 12  1  0
 12 13  1  0
 12 14  1  0
 12 15  1  0
  7  2  1  0
A    1
 C1 
A    2
 C2 
A    3
 C3 
A    4
 N1 
A    5
 C4 
A    6
 C5 
A    7
 C6 
A    8
 N2 
A    9
 C7 
A   10
 O1 
A   11
 C8 
A   12
 C9 
A   13
 C10
A   14
 F1 
A   15
 F2 
M  END
>  <similarity>  (31) 
1.0

>  <smiles>  (31) 
Cc1cnccc1NC(=O)CC(C)(F)F

>  <cmpd_id>  (31) 
ENAMINE:Z1864245950

>  <used_subnode>  (31) 
c1ccncc1

>  <used_synthon>  (31) 
CC(F)(F)CC(=O)N[Xe]

>  <ref_subnode>  (31) 
c1ccncc1

>  <ref_synthon>  (31) 
N#CCC(=O)N[Xe]

>  <fragmentA>  (31) 
x0416_0A

>  <fragmentB>  (31) 
x0310_0A

>  <HA>  (31) 
15

>  <HBD>  (31) 
1

>  <HBA>  (31) 
2

>  <MW>  (31) 
214.091769444

>  <TPSA>  (31) 
41.99

>  <LogP>  (31) 
2.3738200000000003

>  <RBs>  (31) 
3

>  <G_bound>  (31) 
-7.816997583834074

>  <G_unbound>  (31) 
0.3545865115362929

>  <deltaG>  (31) 
-8.171584095370367

>  <comRMSD>  (31) 
0.7631277895796953

>  <substructure_overlap_check>  (31) 
True

>  <energy_ratio_check>  (31) 
True

>  <const_energy/unconst_energy>  (31) 
2.9052308919939622

>  <sucos>  (31) 
0.5338155747069905

>  <interactions>  (31) 
HBDonor_SER-125,Hydrophobic_TYR-90,Hydrophobic_VAL-124,Hydrophobic_TYR-89,Hydrophobic_PRO-107,Hydrophobic_HIS-21

>  <total_num_ints>  (31) 
6

>  <total_num_ints_nonhyd>  (31) 
1

>  <num_uniq_frag_ints>  (31) 
2

>  <num_repl_uniq_ints>  (31) 
2

>  <num_uniq_ints_lost>  (31) 
0

>  <num_new_uniq_ints>  (31) 
4

>  <int_check>  (31) 
True

>  <tversky>  (31) 
0.33949620137382086

>  <mean_vol_overlap>  (31) 
0.5731820325828726

>  <rotat_bonds>  (31) 
3

>  <ref_url>  (31) 
https://pubs.acs.org/doi/10.1021/acs.jcim.3c00276?fig=tgr1&ref=pdf

>  <submitter_name>  (31) 
Steph Wills

>  <submitter_institution>  (31) 
University of Oxford

>  <submitter_email>  (31) 
stephanie.wills@balliol.ox.ac.uk

>  <generation_date>  (31) 
2023-11-27

>  <method>  (31) 
FragNetv2_pt2

>  <original SMILES>  (31) 
Cc1cnccc1NC(=O)CC(C)(F)F

>  <original_name>  (31) 
x0416_0A-x0310_0A_113717_B1X

>  <ref_mols>  (31) 
x0416_0A,x0310_0A

>  <ref_pdb>  (31) 
x0310_0A

>  <rationale>  (31) 
FragNet: 1 round bioisosteric merging incl c1ccncc1 and CC(F)(F)CC(=O)N[Xe] replacing N#CCC(=O)N[Xe]

$$$$
x0416_0A-x0310_0A_151897_B1X
     RDKit          3D

 14 14  0  0  0  0  0  0  0  0999 V2000
   12.7300   13.6570   21.5350 C   0  0  0  0  0  0  0  0  0  0  0  0
   12.1000   14.0500   22.6320 C   0  0  0  0  0  0  0  0  0  0  0  0
   12.2750   15.3980   23.1640 C   0  0  0  0  0  0  0  0  0  0  0  0
   12.0080   16.4330   22.1200 C   0  0  0  0  0  0  0  0  0  0  0  0
   11.1650   13.2450   23.4740 C   0  0  0  0  0  0  0  0  0  0  0  0
   11.2870   13.3430   24.6760 O   0  0  0  0  0  0  0  0  0  0  0  0
   10.2090   12.4930   22.8480 N   0  0  0  0  0  0  0  0  0  0  0  0
    9.2580   11.7870   23.6210 C   0  0  0  0  0  0  0  0  0  0  0  0
    8.3060   12.4300   24.4220 C   0  0  0  0  0  0  0  0  0  0  0  0
    7.4250   11.6630   25.1570 C   0  0  0  0  0  0  0  0  0  0  0  0
    7.4280   10.3340   25.1530 N   0  0  0  0  0  0  0  0  0  0  0  0
    8.3480    9.7510   24.3750 C   0  0  0  0  0  0  0  0  0  0  0  0
    9.2670   10.3880   23.5990 C   0  0  0  0  0  0  0  0  0  0  0  0
   10.1790    9.5160   22.8110 C   0  0  0  0  0  0  0  0  0  0  0  0
  1  2  2  3
  2  3  1  0
  3  4  1  0
  2  5  1  0
  5  6  2  0
  5  7  1  0
  7  8  1  0
  8  9  2  0
  9 10  1  0
 10 11  2  0
 11 12  1  0
 12 13  2  0
 13 14  1  0
 13  8  1  0
A    1
 C1 
A    2
 C2 
A    3
 C3 
A    4
 C4 
A    5
 C5 
A    6
 O1 
A    7
 N1 
A    8
 C6 
A    9
 C7 
A   10
 C8 
A   11
 N2 
A   12
 C9 
A   13
 C10
A   14
 C11
M  END
>  <similarity>  (32) 
1.0

>  <smiles>  (32) 
C=C(CC)C(=O)Nc1ccncc1C

>  <cmpd_id>  (32) 
ENAMINE:Z3189079410

>  <used_subnode>  (32) 
c1ccncc1

>  <used_synthon>  (32) 
C=C(CC)C(=O)N[Xe]

>  <ref_subnode>  (32) 
c1ccncc1

>  <ref_synthon>  (32) 
N#CCC(=O)N[Xe]

>  <fragmentA>  (32) 
x0416_0A

>  <fragmentB>  (32) 
x0310_0A

>  <HA>  (32) 
14

>  <HBD>  (32) 
1

>  <HBA>  (32) 
2

>  <MW>  (32) 
190.110613068

>  <TPSA>  (32) 
41.99

>  <LogP>  (32) 
2.29472

>  <RBs>  (32) 
3

>  <G_bound>  (32) 
-9.27684019579734

>  <G_unbound>  (32) 
0.11639719367459589

>  <deltaG>  (32) 
-9.393237389471935

>  <comRMSD>  (32) 
0.7923924799964478

>  <substructure_overlap_check>  (32) 
True

>  <energy_ratio_check>  (32) 
True

>  <const_energy/unconst_energy>  (32) 
2.1182568088345435

>  <sucos>  (32) 
0.5339524402294263

>  <interactions>  (32) 
HBDonor_SER-125,Hydrophobic_TYR-90,Hydrophobic_VAL-124,Hydrophobic_TYR-89,Hydrophobic_PRO-107,Hydrophobic_HIS-21

>  <total_num_ints>  (32) 
6

>  <total_num_ints_nonhyd>  (32) 
1

>  <num_uniq_frag_ints>  (32) 
2

>  <num_repl_uniq_ints>  (32) 
2

>  <num_uniq_ints_lost>  (32) 
0

>  <num_new_uniq_ints>  (32) 
4

>  <int_check>  (32) 
True

>  <tversky>  (32) 
0.330535620727072

>  <mean_vol_overlap>  (32) 
0.5952597219376646

>  <rotat_bonds>  (32) 
3

>  <ref_url>  (32) 
https://pubs.acs.org/doi/10.1021/acs.jcim.3c00276?fig=tgr1&ref=pdf

>  <submitter_name>  (32) 
Steph Wills

>  <submitter_institution>  (32) 
University of Oxford

>  <submitter_email>  (32) 
stephanie.wills@balliol.ox.ac.uk

>  <generation_date>  (32) 
2023-11-27

>  <method>  (32) 
FragNetv2_pt2

>  <original SMILES>  (32) 
C=C(CC)C(=O)Nc1ccncc1C

>  <original_name>  (32) 
x0416_0A-x0310_0A_151897_B1X

>  <ref_mols>  (32) 
x0416_0A,x0310_0A

>  <ref_pdb>  (32) 
x0310_0A

>  <rationale>  (32) 
FragNet: 1 round bioisosteric merging incl c1ccncc1 and C=C(CC)C(=O)N[Xe] replacing N#CCC(=O)N[Xe]

$$$$
x0416_0A-x0310_0A_153560_B1X
     RDKit          3D

 16 16  0  0  0  0  0  0  0  0999 V2000
   10.0840    9.3060   22.8660 C   0  0  0  0  0  0  0  0  0  0  0  0
    9.2150   10.2200   23.6760 C   0  0  0  0  0  0  0  0  0  0  0  0
    8.2420    9.6310   24.4020 N   0  0  0  0  0  0  0  0  0  0  0  0
    7.4360   10.4410   25.1360 C   0  0  0  0  0  0  0  0  0  0  0  0
    7.5590   11.8160   25.1710 C   0  0  0  0  0  0  0  0  0  0  0  0
    8.5630   12.3980   24.4260 C   0  0  0  0  0  0  0  0  0  0  0  0
    9.4120   11.5990   23.6650 C   0  0  0  0  0  0  0  0  0  0  0  0
   10.4030   12.1140   22.9470 N   0  0  0  0  0  0  0  0  0  0  0  0
   11.0590   13.1380   23.5740 C   0  0  0  0  0  0  0  0  0  0  0  0
   10.6360   13.7100   24.5700 O   0  0  0  0  0  0  0  0  0  0  0  0
   12.3870   13.5470   22.9540 C   0  0  0  0  0  0  0  0  0  0  0  0
   12.4290   15.0390   23.2100 C   0  0  0  0  0  0  0  0  0  0  0  0
   12.1810   15.7290   21.8740 C   0  0  0  0  0  0  0  0  0  0  0  0
   13.2950   15.6030   21.1250 F   0  0  0  0  0  0  0  0  0  0  0  0
   11.9020   17.0380   21.9840 F   0  0  0  0  0  0  0  0  0  0  0  0
   11.1700   15.1920   21.1630 F   0  0  0  0  0  0  0  0  0  0  0  0
  1  2  1  0
  2  3  2  0
  3  4  1  0
  4  5  2  0
  5  6  1  0
  6  7  2  0
  7  8  1  0
  8  9  1  0
  9 10  2  0
  9 11  1  0
 11 12  1  0
 12 13  1  0
 13 14  1  0
 13 15  1  0
 13 16  1  0
  7  2  1  0
A    1
 C1 
A    2
 C2 
A    3
 N1 
A    4
 C3 
A    5
 C4 
A    6
 C5 
A    7
 C6 
A    8
 N2 
A    9
 C7 
A   10
 O1 
A   11
 C8 
A   12
 C9 
A   13
 C10
A   14
 F1 
A   15
 F2 
A   16
 F3 
M  END
>  <similarity>  (33) 
1.0

>  <smiles>  (33) 
Cc1ncccc1NC(=O)CCC(F)(F)F

>  <cmpd_id>  (33) 
ENAMINE:Z1303531629

>  <used_subnode>  (33) 
c1ccncc1

>  <used_synthon>  (33) 
O=C(CCC(F)(F)F)N[Xe]

>  <ref_subnode>  (33) 
c1ccncc1

>  <ref_synthon>  (33) 
N#CCC(=O)N[Xe]

>  <fragmentA>  (33) 
x0416_0A

>  <fragmentB>  (33) 
x0310_0A

>  <HA>  (33) 
16

>  <HBD>  (33) 
1

>  <HBA>  (33) 
2

>  <MW>  (33) 
232.082347632

>  <TPSA>  (33) 
41.99

>  <LogP>  (33) 
2.6710200000000004

>  <RBs>  (33) 
3

>  <G_bound>  (33) 
-6.789313261378299

>  <G_unbound>  (33) 
1.1588275112831063

>  <deltaG>  (33) 
-7.9481407726614055

>  <comRMSD>  (33) 
0.5708886668120963

>  <substructure_overlap_check>  (33) 
True

>  <energy_ratio_check>  (33) 
True

>  <const_energy/unconst_energy>  (33) 
4.7341575942899015

>  <sucos>  (33) 
0.5343364607715689

>  <interactions>  (33) 
HBDonor_SER-125,Hydrophobic_VAL-124,HBAcceptor_SER-105,Hydrophobic_TYR-89,Hydrophobic_PRO-107,Hydrophobic_HIS-21

>  <total_num_ints>  (33) 
6

>  <total_num_ints_nonhyd>  (33) 
2

>  <num_uniq_frag_ints>  (33) 
2

>  <num_repl_uniq_ints>  (33) 
2

>  <num_uniq_ints_lost>  (33) 
0

>  <num_new_uniq_ints>  (33) 
4

>  <int_check>  (33) 
True

>  <tversky>  (33) 
0.36907128157460084

>  <mean_vol_overlap>  (33) 
0.5569756492767993

>  <rotat_bonds>  (33) 
3

>  <ref_url>  (33) 
https://pubs.acs.org/doi/10.1021/acs.jcim.3c00276?fig=tgr1&ref=pdf

>  <submitter_name>  (33) 
Steph Wills

>  <submitter_institution>  (33) 
University of Oxford

>  <submitter_email>  (33) 
stephanie.wills@balliol.ox.ac.uk

>  <generation_date>  (33) 
2023-11-27

>  <method>  (33) 
FragNetv2_pt2

>  <original SMILES>  (33) 
Cc1ncccc1NC(=O)CCC(F)(F)F

>  <original_name>  (33) 
x0416_0A-x0310_0A_153560_B1X

>  <ref_mols>  (33) 
x0416_0A,x0310_0A

>  <ref_pdb>  (33) 
x0310_0A

>  <rationale>  (33) 
FragNet: 1 round bioisosteric merging incl c1ccncc1 and O=C(CCC(F)(F)F)N[Xe] replacing N#CCC(=O)N[Xe]

$$$$
x0416_0A-x0310_0A_13974_B1X
     RDKit          3D

 18 20  0  0  0  0  0  0  0  0999 V2000
   12.1040   13.8130   22.8740 C   0  0  0  0  0  0  0  0  0  0  0  0
   10.8400   13.3020   23.5580 C   0  0  0  0  0  0  0  0  0  0  0  0
   10.6650   13.8870   24.8370 O   0  0  0  0  0  0  0  0  0  0  0  0
   10.0900   12.3990   22.8870 N   0  0  0  0  0  0  0  0  0  0  0  0
    8.8900   11.9510   23.3420 C   0  0  2  0  0  0  0  0  0  0  0  0
    8.0910   12.3810   24.6000 C   0  0  0  0  0  0  0  0  0  0  0  0
    7.6470   11.2730   25.3240 N   0  0  0  0  0  0  0  0  0  0  0  0
    6.4210   10.9540   26.0210 C   0  0  0  0  0  0  0  0  0  0  0  0
    5.7370   10.0230   25.6610 O   0  0  0  0  0  0  0  0  0  0  0  0
    5.8280   11.5270   27.3170 C   0  0  1  0  0  0  0  0  0  0  0  0
    6.4950   12.6510   28.0450 C   0  0  0  0  0  0  0  0  0  0  0  0
    5.4720   13.1670   28.8350 C   0  0  0  0  0  0  0  0  0  0  0  0
    4.2290   12.7360   28.3730 C   0  0  0  0  0  0  0  0  0  0  0  0
    4.4660   12.0170   27.2210 O   0  0  0  0  0  0  0  0  0  0  0  0
    8.2060   10.1980   24.7140 C   0  0  0  0  0  0  0  0  0  0  0  0
    8.9150   10.4250   23.5450 C   0  0  0  0  0  0  0  0  0  0  0  0
   10.2660   10.1450   23.3150 C   0  0  0  0  0  0  0  0  0  0  0  0
    9.3760    9.0880   22.7160 C   0  0  0  0  0  0  0  0  0  0  0  0
  1  2  1  0
  2  3  2  0
  2  4  1  0
  5  4  1  1
  5  6  1  0
  6  7  1  0
  7  8  1  0
  8  9  2  0
 10  8  1  6
 10 11  1  0
 11 12  1  0
 12 13  1  0
 13 14  1  0
  7 15  1  0
 15 16  1  0
 16 17  1  0
 17 18  1  0
 16  5  1  0
 14 10  1  0
 18 16  1  0
A    1
 C1 
A    2
 C2 
A    3
 O1 
A    4
 N1 
A    5
 C3 
A    6
 C4 
A    7
 N2 
A    8
 C5 
A    9
 O2 
A   10
 C6 
A   11
 C7 
A   12
 C8 
A   13
 C9 
A   14
 O3 
A   15
 C10
A   16
 C11
A   17
 C12
A   18
 C13
M  END
>  <similarity>  (34) 
1.0

>  <smiles>  (34) 
CC(=O)NC1CN(C(=O)C2CCCO2)CC12CC2

>  <cmpd_id>  (34) 
ENAMINE:PV-003883833446

>  <used_subnode>  (34) 
C1CCOC1

>  <used_synthon>  (34) 
CC(=O)N[Xe]

>  <ref_subnode>  (34) 
C1CCOC1

>  <ref_synthon>  (34) 
N#CCC(=O)N[Xe]

>  <fragmentA>  (34) 
x0416_0A

>  <fragmentB>  (34) 
x0310_0A

>  <HA>  (34) 
18

>  <HBD>  (34) 
1

>  <HBA>  (34) 
3

>  <MW>  (34) 
252.1473925

>  <TPSA>  (34) 
58.64

>  <LogP>  (34) 
0.2925000000000002

>  <RBs>  (34) 
2

>  <G_bound>  (34) 
-2.542985709982879

>  <G_unbound>  (34) 
0.6202678234472035

>  <deltaG>  (34) 
-3.1632535334300824

>  <comRMSD>  (34) 
0.5785092954507238

>  <substructure_overlap_check>  (34) 
True

>  <energy_ratio_check>  (34) 
True

>  <const_energy/unconst_energy>  (34) 
2.545741987323831

>  <sucos>  (34) 
0.5345713640676129

>  <interactions>  (34) 
HBDonor_SER-125,Hydrophobic_VAL-124,Hydrophobic_PRO-107,Hydrophobic_HIS-21

>  <total_num_ints>  (34) 
4

>  <total_num_ints_nonhyd>  (34) 
1

>  <num_uniq_frag_ints>  (34) 
2

>  <num_repl_uniq_ints>  (34) 
2

>  <num_uniq_ints_lost>  (34) 
0

>  <num_new_uniq_ints>  (34) 
2

>  <int_check>  (34) 
True

>  <tversky>  (34) 
0.35018297232830614

>  <mean_vol_overlap>  (34) 
0.5975859050601622

>  <rotat_bonds>  (34) 
2

>  <ref_url>  (34) 
https://pubs.acs.org/doi/10.1021/acs.jcim.3c00276?fig=tgr1&ref=pdf

>  <submitter_name>  (34) 
Steph Wills

>  <submitter_institution>  (34) 
University of Oxford

>  <submitter_email>  (34) 
stephanie.wills@balliol.ox.ac.uk

>  <generation_date>  (34) 
2023-11-27

>  <method>  (34) 
FragNetv2_pt2

>  <original SMILES>  (34) 
CC(=O)NC1CN(C(=O)C2CCCO2)CC12CC2

>  <original_name>  (34) 
x0416_0A-x0310_0A_13974_B1X

>  <ref_mols>  (34) 
x0416_0A,x0310_0A

>  <ref_pdb>  (34) 
x0310_0A

>  <rationale>  (34) 
FragNet: 1 round bioisosteric merging incl C1CCOC1 and CC(=O)N[Xe] replacing N#CCC(=O)N[Xe]

$$$$
x0416_0A-x0310_0A_109500_B1X
     RDKit          3D

 17 17  0  0  0  0  0  0  0  0999 V2000
   10.0730    9.1700   22.1320 C   0  0  0  0  0  0  0  0  0  0  0  0
    9.8630    9.1160   23.5810 C   0  0  0  0  0  0  0  0  0  0  0  0
    9.0150   10.2820   24.0490 C   0  0  0  0  0  0  0  0  0  0  0  0
    7.9040    9.9930   24.8950 N   0  0  0  0  0  0  0  0  0  0  0  0
    7.1300   11.0000   25.3470 C   0  0  0  0  0  0  0  0  0  0  0  0
    7.4280   12.4650   24.9650 C   0  0  0  0  0  0  0  0  0  0  0  0
    6.6700   13.4780   25.4100 F   0  0  0  0  0  0  0  0  0  0  0  0
    8.5300   12.6810   24.1330 C   0  0  0  0  0  0  0  0  0  0  0  0
    9.2510   11.5800   23.7300 C   0  0  0  0  0  0  0  0  0  0  0  0
   10.2650   12.2140   22.9310 N   0  0  0  0  0  0  0  0  0  0  0  0
   11.0600   13.2000   23.3890 C   0  0  0  0  0  0  0  0  0  0  0  0
   11.2040   13.4620   24.5730 O   0  0  0  0  0  0  0  0  0  0  0  0
   11.7770   14.0290   22.3080 C   0  0  0  0  0  0  0  0  0  0  0  0
   10.8310   14.3970   21.3820 F   0  0  0  0  0  0  0  0  0  0  0  0
   12.7500   13.3810   21.6400 F   0  0  0  0  0  0  0  0  0  0  0  0
   12.3280   15.2580   22.9820 C   0  0  0  0  0  0  0  0  0  0  0  0
   12.0280   16.3770   22.1230 C   0  0  0  0  0  0  0  0  0  0  0  0
  1  2  1  0
  2  3  1  0
  3  4  2  0
  4  5  1  0
  5  6  2  0
  6  7  1  0
  6  8  1  0
  8  9  2  0
  9 10  1  0
 10 11  1  0
 11 12  2  0
 11 13  1  0
 13 14  1  0
 13 15  1  0
 13 16  1  0
 16 17  1  0
  9  3  1  0
A    1
 C1 
A    2
 C2 
A    3
 C3 
A    4
 N1 
A    5
 C4 
A    6
 C5 
A    7
 F1 
A    8
 C6 
A    9
 C7 
A   10
 N2 
A   11
 C8 
A   12
 O1 
A   13
 C9 
A   14
 F2 
A   15
 F3 
A   16
 C10
A   17
 C11
M  END
>  <similarity>  (35) 
1.0

>  <smiles>  (35) 
CCc1ncc(F)cc1NC(=O)C(F)(F)CC

>  <cmpd_id>  (35) 
ENAMINE:Z3614355606

>  <used_subnode>  (35) 
c1ccncc1

>  <used_synthon>  (35) 
CCC(F)(F)C(=O)N[Xe]

>  <ref_subnode>  (35) 
c1ccncc1

>  <ref_synthon>  (35) 
N#CCC(=O)N[Xe]

>  <fragmentA>  (35) 
x0416_0A

>  <fragmentB>  (35) 
x0310_0A

>  <HA>  (35) 
17

>  <HBD>  (35) 
1

>  <HBA>  (35) 
2

>  <MW>  (35) 
246.097997696

>  <TPSA>  (35) 
41.99

>  <LogP>  (35) 
2.7669000000000006

>  <RBs>  (35) 
4

>  <G_bound>  (35) 
-5.778652532527347

>  <G_unbound>  (35) 
0.4180165980665637

>  <deltaG>  (35) 
-6.196669130593911

>  <comRMSD>  (35) 
0.4161397318385976

>  <substructure_overlap_check>  (35) 
True

>  <energy_ratio_check>  (35) 
True

>  <const_energy/unconst_energy>  (35) 
6.392854174356209

>  <sucos>  (35) 
0.5347094765438946

>  <interactions>  (35) 
HBDonor_SER-125,Hydrophobic_TYR-90,Hydrophobic_VAL-124,Hydrophobic_TYR-89,Hydrophobic_PRO-107,Hydrophobic_HIS-21

>  <total_num_ints>  (35) 
6

>  <total_num_ints_nonhyd>  (35) 
1

>  <num_uniq_frag_ints>  (35) 
2

>  <num_repl_uniq_ints>  (35) 
2

>  <num_uniq_ints_lost>  (35) 
0

>  <num_new_uniq_ints>  (35) 
4

>  <int_check>  (35) 
True

>  <tversky>  (35) 
0.28232985128663995

>  <mean_vol_overlap>  (35) 
0.5838894297980377

>  <rotat_bonds>  (35) 
4

>  <ref_url>  (35) 
https://pubs.acs.org/doi/10.1021/acs.jcim.3c00276?fig=tgr1&ref=pdf

>  <submitter_name>  (35) 
Steph Wills

>  <submitter_institution>  (35) 
University of Oxford

>  <submitter_email>  (35) 
stephanie.wills@balliol.ox.ac.uk

>  <generation_date>  (35) 
2023-11-27

>  <method>  (35) 
FragNetv2_pt2

>  <original SMILES>  (35) 
CCc1ncc(F)cc1NC(=O)C(F)(F)CC

>  <original_name>  (35) 
x0416_0A-x0310_0A_109500_B1X

>  <ref_mols>  (35) 
x0416_0A,x0310_0A

>  <ref_pdb>  (35) 
x0310_0A

>  <rationale>  (35) 
FragNet: 1 round bioisosteric merging incl c1ccncc1 and CCC(F)(F)C(=O)N[Xe] replacing N#CCC(=O)N[Xe]

$$$$
x0451_0A-x0416_0A_2343_B1X
     RDKit          3D

 18 20  0  0  0  0  0  0  0  0999 V2000
   11.2770   14.6690   25.5270 N   0  0  0  0  0  0  0  0  0  0  0  0
   11.4760   13.7170   24.4250 C   0  0  0  0  0  0  0  0  0  0  0  0
   10.2000   13.4400   23.6750 C   0  0  0  0  0  0  0  0  0  0  0  0
    9.6240   12.1840   23.7960 C   0  0  0  0  0  0  0  0  0  0  0  0
   10.0600   11.0640   23.1070 C   0  0  0  0  0  0  0  0  0  0  0  0
    9.2850   10.0160   23.4550 N   0  0  0  0  0  0  0  0  0  0  0  0
    8.3460   10.4230   24.3590 C   0  0  0  0  0  0  0  0  0  0  0  0
    7.3640    9.6800   24.9660 C   0  0  0  0  0  0  0  0  0  0  0  0
    6.5240   10.3160   25.8500 C   0  0  0  0  0  0  0  0  0  0  0  0
    6.6500   11.6860   26.1360 C   0  0  0  0  0  0  0  0  0  0  0  0
    5.6720   12.2370   27.0660 C   0  0  0  0  0  0  0  0  0  0  0  0
    4.6230   12.8210   26.5070 C   0  0  0  0  0  0  0  0  0  0  0  0
    3.5250   13.3820   27.3290 C   0  0  0  0  0  0  0  0  0  0  0  0
    3.3220   12.4550   28.3780 O   0  0  0  0  0  0  0  0  0  0  0  0
    4.4350   12.4670   29.2760 C   0  0  0  0  0  0  0  0  0  0  0  0
    5.7740   12.1430   28.5790 C   0  0  0  0  0  0  0  0  0  0  0  0
    7.6640   12.4330   25.5100 C   0  0  0  0  0  0  0  0  0  0  0  0
    8.5270   11.7830   24.6010 C   0  0  0  0  0  0  0  0  0  0  0  0
  1  2  1  0
  2  3  1  0
  3  4  1  0
  4  5  2  0
  5  6  1  0
  6  7  1  0
  7  8  2  0
  8  9  1  0
  9 10  2  0
 10 11  1  0
 11 12  2  0
 12 13  1  0
 13 14  1  0
 14 15  1  0
 15 16  1  0
 10 17  1  0
 17 18  2  0
 18  4  1  0
 18  7  1  0
 16 11  1  0
A    1
 N1 
A    2
 C1 
A    3
 C2 
A    4
 C3 
A    5
 C4 
A    6
 N2 
A    7
 C5 
A    8
 C6 
A    9
 C7 
A   10
 C8 
A   11
 C9 
A   12
 C10
A   13
 C11
A   14
 O1 
A   15
 C12
A   16
 C13
A   17
 C14
A   18
 C15
M  END
>  <similarity>  (36) 
1.0

>  <smiles>  (36) 
NCCc1c[nH]c2ccc(C3=CCOCC3)cc12

>  <cmpd_id>  (36) 
ENAMINE:Z2789700272

>  <used_subnode>  (36) 
c1ccc2[nH]ccc2c1

>  <used_synthon>  (36) 
[Xe]C1=CCOCC1

>  <ref_subnode>  (36) 
c1ccc2[nH]ccc2c1

>  <ref_synthon>  (36) 
[Xe]C1CCCO1

>  <fragmentA>  (36) 
x0451_0A

>  <fragmentB>  (36) 
x0416_0A

>  <HA>  (36) 
18

>  <HBD>  (36) 
2

>  <HBA>  (36) 
2

>  <MW>  (36) 
242.141913196

>  <TPSA>  (36) 
51.040000000000006

>  <LogP>  (36) 
2.4728000000000003

>  <RBs>  (36) 
3

>  <G_bound>  (36) 
-7.125037765018392

>  <G_unbound>  (36) 
0.13363389437693388

>  <deltaG>  (36) 
-7.2586716593953255

>  <comRMSD>  (36) 
0.702299761493326

>  <substructure_overlap_check>  (36) 
True

>  <energy_ratio_check>  (36) 
True

>  <const_energy/unconst_energy>  (36) 
1.3923866320861547

>  <sucos>  (36) 
0.5349163980747556

>  <interactions>  (36) 
HBDonor_SER-105,Hydrophobic_PRO-107

>  <total_num_ints>  (36) 
2

>  <total_num_ints_nonhyd>  (36) 
1

>  <num_uniq_frag_ints>  (36) 
1

>  <num_repl_uniq_ints>  (36) 
1

>  <num_uniq_ints_lost>  (36) 
0

>  <num_new_uniq_ints>  (36) 
1

>  <int_check>  (36) 
True

>  <tversky>  (36) 
0.12745922454925265

>  <mean_vol_overlap>  (36) 
0.5850188079417455

>  <rotat_bonds>  (36) 
3

>  <ref_url>  (36) 
https://pubs.acs.org/doi/10.1021/acs.jcim.3c00276?fig=tgr1&ref=pdf

>  <submitter_name>  (36) 
Steph Wills

>  <submitter_institution>  (36) 
University of Oxford

>  <submitter_email>  (36) 
stephanie.wills@balliol.ox.ac.uk

>  <generation_date>  (36) 
2023-11-27

>  <method>  (36) 
FragNetv2_pt2

>  <original SMILES>  (36) 
NCCc1c[nH]c2ccc(C3=CCOCC3)cc12

>  <original_name>  (36) 
x0451_0A-x0416_0A_2343_B1X

>  <ref_mols>  (36) 
x0451_0A,x0416_0A

>  <ref_pdb>  (36) 
x0310_0A

>  <rationale>  (36) 
FragNet: 1 round bioisosteric merging incl c1ccc2[nH]ccc2c1 and [Xe]C1=CCOCC1 replacing [Xe]C1CCCO1

$$$$
x0416_0A-x0310_0A_81994_B1X
     RDKit          3D

 16 17  0  0  0  0  0  0  0  0999 V2000
    8.3100   14.3120   25.1240 C   0  0  0  0  0  0  0  0  0  0  0  0
    7.6370   13.0040   25.5160 C   0  0  1  0  0  0  0  0  0  0  0  0
    6.3060   13.0950   25.4720 N   0  0  0  0  0  0  0  0  0  0  0  0
    5.7910   13.5030   26.6510 C   0  0  0  0  0  0  0  0  0  0  0  0
    5.8640   12.5750   27.8720 C   0  0  1  0  0  0  0  0  0  0  0  0
    6.9350   12.1880   28.3120 O   0  0  0  0  0  0  0  0  0  0  0  0
    4.9680   13.0760   28.9600 C   0  0  0  0  0  0  0  0  0  0  0  0
    3.6860   12.3310   28.7310 C   0  0  0  0  0  0  0  0  0  0  0  0
    3.7870   11.6280   27.6980 O   0  0  0  0  0  0  0  0  0  0  0  0
    5.0030   11.3710   27.4370 C   0  0  0  0  0  0  0  0  0  0  0  0
    8.2870   11.8480   24.7240 C   0  0  0  0  0  0  0  0  0  0  0  0
    9.3640   12.2490   23.7600 C   0  0  0  0  0  0  0  0  0  0  0  0
    9.9670   11.0850   23.0320 C   0  0  0  0  0  0  0  0  0  0  0  0
    9.5200    9.6650   23.2570 C   0  0  0  0  0  0  0  0  0  0  0  0
    8.5200    9.3840   24.1550 N   0  0  0  0  0  0  0  0  0  0  0  0
    7.9300   10.5070   24.8720 C   0  0  0  0  0  0  0  0  0  0  0  0
  2  1  1  6
  2  3  1  0
  3  4  1  0
  4  5  1  0
  5  6  1  1
  5  7  1  0
  7  8  1  0
  8  9  1  0
  9 10  1  0
  2 11  1  0
 11 12  2  0
 12 13  1  0
 13 14  2  0
 14 15  1  0
 15 16  2  0
 10  5  1  0
 16 11  1  0
A    1
 C1 
A    2
 C2 
A    3
 N1 
A    4
 C3 
A    5
 C4 
A    6
 O1 
A    7
 C5 
A    8
 C6 
A    9
 O2 
A   10
 C7 
A   11
 C8 
A   12
 C9 
A   13
 C10
A   14
 C11
A   15
 N2 
A   16
 C12
M  END
>  <similarity>  (37) 
1.0

>  <smiles>  (37) 
CC(NCC1(O)CCOC1)c1cccnc1

>  <cmpd_id>  (37) 
ENAMINE:Z1583116507

>  <used_subnode>  (37) 
C1CCOC1

>  <used_synthon>  (37) 
[Xe]c1cccnc1

>  <ref_subnode>  (37) 
C1CCOC1

>  <ref_synthon>  (37) 
[Xe]n1cccn1

>  <fragmentA>  (37) 
x0416_0A

>  <fragmentB>  (37) 
x0310_0A

>  <HA>  (37) 
16

>  <HBD>  (37) 
2

>  <HBA>  (37) 
4

>  <MW>  (37) 
222.136827816

>  <TPSA>  (37) 
54.379999999999995

>  <LogP>  (37) 
0.8835999999999998

>  <RBs>  (37) 
4

>  <G_bound>  (37) 
-4.671308768278625

>  <G_unbound>  (37) 
0.19854639629504592

>  <deltaG>  (37) 
-4.869855164573671

>  <comRMSD>  (37) 
1.3444794243698093

>  <substructure_overlap_check>  (37) 
True

>  <energy_ratio_check>  (37) 
True

>  <const_energy/unconst_energy>  (37) 
5.14102135445282

>  <sucos>  (37) 
0.5353546946283437

>  <interactions>  (37) 
Hydrophobic_VAL-124,HBAcceptor_SER-105,Hydrophobic_PRO-107

>  <total_num_ints>  (37) 
3

>  <total_num_ints_nonhyd>  (37) 
1

>  <num_uniq_frag_ints>  (37) 
2

>  <num_repl_uniq_ints>  (37) 
2

>  <num_uniq_ints_lost>  (37) 
0

>  <num_new_uniq_ints>  (37) 
1

>  <int_check>  (37) 
True

>  <tversky>  (37) 
0.2190160298222954

>  <mean_vol_overlap>  (37) 
0.5692389522711825

>  <rotat_bonds>  (37) 
4

>  <ref_url>  (37) 
https://pubs.acs.org/doi/10.1021/acs.jcim.3c00276?fig=tgr1&ref=pdf

>  <submitter_name>  (37) 
Steph Wills

>  <submitter_institution>  (37) 
University of Oxford

>  <submitter_email>  (37) 
stephanie.wills@balliol.ox.ac.uk

>  <generation_date>  (37) 
2023-11-27

>  <method>  (37) 
FragNetv2_pt2

>  <original SMILES>  (37) 
CC(NCC1(O)CCOC1)c1cccnc1

>  <original_name>  (37) 
x0416_0A-x0310_0A_81994_B1X

>  <ref_mols>  (37) 
x0416_0A,x0310_0A

>  <ref_pdb>  (37) 
x0310_0A

>  <rationale>  (37) 
FragNet: 1 round bioisosteric merging incl C1CCOC1 and [Xe]c1cccnc1 replacing [Xe]n1cccn1

$$$$
x0416_0A-x0310_0A_152580_B1X
     RDKit          3D

 17 17  0  0  0  0  0  0  0  0999 V2000
    6.2000   12.1120   26.1460 C   0  0  0  0  0  0  0  0  0  0  0  0
    7.2720   11.5680   25.2600 C   0  0  0  0  0  0  0  0  0  0  0  0
    8.0890   12.4470   24.5510 C   0  0  0  0  0  0  0  0  0  0  0  0
    9.0830   11.9240   23.7280 C   0  0  0  0  0  0  0  0  0  0  0  0
   10.0140   12.6390   22.9470 N   0  0  0  0  0  0  0  0  0  0  0  0
   10.8410   13.5720   23.5300 C   0  0  0  0  0  0  0  0  0  0  0  0
   10.6410   14.1340   24.5970 O   0  0  0  0  0  0  0  0  0  0  0  0
   12.1370   13.9480   22.8200 C   0  0  0  0  0  0  0  0  0  0  0  0
   12.4080   13.0610   21.8630 F   0  0  0  0  0  0  0  0  0  0  0  0
   13.1620   13.9200   23.7240 F   0  0  0  0  0  0  0  0  0  0  0  0
   12.0670   15.2870   22.1250 C   0  0  0  0  0  0  0  0  0  0  0  0
   12.0000   16.2810   23.0220 F   0  0  0  0  0  0  0  0  0  0  0  0
   10.9570   15.3870   21.3440 F   0  0  0  0  0  0  0  0  0  0  0  0
    9.1580   10.4150   23.6910 C   0  0  0  0  0  0  0  0  0  0  0  0
   10.2110    9.8270   22.8030 C   0  0  0  0  0  0  0  0  0  0  0  0
    8.3080    9.6920   24.4280 C   0  0  0  0  0  0  0  0  0  0  0  0
    7.3660   10.2320   25.2160 N   0  0  0  0  0  0  0  0  0  0  0  0
  1  2  1  0
  2  3  2  0
  3  4  1  0
  4  5  1  0
  5  6  1  0
  6  7  2  0
  6  8  1  0
  8  9  1  0
  8 10  1  0
  8 11  1  0
 11 12  1  0
 11 13  1  0
  4 14  2  0
 14 15  1  0
 14 16  1  0
 16 17  2  0
 17  2  1  0
A    1
 C1 
A    2
 C2 
A    3
 C3 
A    4
 C4 
A    5
 N1 
A    6
 C5 
A    7
 O1 
A    8
 C6 
A    9
 F1 
A   10
 F2 
A   11
 C7 
A   12
 F3 
A   13
 F4 
A   14
 C8 
A   15
 C9 
A   16
 C10
A   17
 N2 
M  END
>  <similarity>  (38) 
1.0

>  <smiles>  (38) 
Cc1cc(NC(=O)C(F)(F)C(F)F)c(C)cn1

>  <cmpd_id>  (38) 
ENAMINE:Z1483009799

>  <used_subnode>  (38) 
c1ccncc1

>  <used_synthon>  (38) 
O=C(N[Xe])C(F)(F)C(F)F

>  <ref_subnode>  (38) 
c1ccncc1

>  <ref_synthon>  (38) 
N#CCC(=O)N[Xe]

>  <fragmentA>  (38) 
x0416_0A

>  <fragmentB>  (38) 
x0310_0A

>  <HA>  (38) 
17

>  <HBD>  (38) 
1

>  <HBA>  (38) 
2

>  <MW>  (38) 
250.07292582

>  <TPSA>  (38) 
41.99

>  <LogP>  (38) 
2.5373400000000004

>  <RBs>  (38) 
3

>  <G_bound>  (38) 
-5.138634721658183

>  <G_unbound>  (38) 
0.492074384207818

>  <deltaG>  (38) 
-5.630709105866001

>  <comRMSD>  (38) 
0.741084636830099

>  <substructure_overlap_check>  (38) 
True

>  <energy_ratio_check>  (38) 
True

>  <const_energy/unconst_energy>  (38) 
3.0773187536789277

>  <sucos>  (38) 
0.5358364085631091

>  <interactions>  (38) 
HBDonor_SER-125,Hydrophobic_VAL-124,Hydrophobic_PRO-107

>  <total_num_ints>  (38) 
3

>  <total_num_ints_nonhyd>  (38) 
1

>  <num_uniq_frag_ints>  (38) 
2

>  <num_repl_uniq_ints>  (38) 
2

>  <num_uniq_ints_lost>  (38) 
0

>  <num_new_uniq_ints>  (38) 
1

>  <int_check>  (38) 
True

>  <tversky>  (38) 
0.33691444374291607

>  <mean_vol_overlap>  (38) 
0.5671067378613928

>  <rotat_bonds>  (38) 
3

>  <ref_url>  (38) 
https://pubs.acs.org/doi/10.1021/acs.jcim.3c00276?fig=tgr1&ref=pdf

>  <submitter_name>  (38) 
Steph Wills

>  <submitter_institution>  (38) 
University of Oxford

>  <submitter_email>  (38) 
stephanie.wills@balliol.ox.ac.uk

>  <generation_date>  (38) 
2023-11-27

>  <method>  (38) 
FragNetv2_pt2

>  <original SMILES>  (38) 
Cc1cc(NC(=O)C(F)(F)C(F)F)c(C)cn1

>  <original_name>  (38) 
x0416_0A-x0310_0A_152580_B1X

>  <ref_mols>  (38) 
x0416_0A,x0310_0A

>  <ref_pdb>  (38) 
x0310_0A

>  <rationale>  (38) 
FragNet: 1 round bioisosteric merging incl c1ccncc1 and O=C(N[Xe])C(F)(F)C(F)F replacing N#CCC(=O)N[Xe]

$$$$
x0416_0A-x0310_0A_114329_B1X
     RDKit          3D

 15 15  0  0  0  0  0  0  0  0999 V2000
   11.0140   14.8680   19.5850 C   0  0  0  0  0  0  0  0  0  0  0  0
   10.5900   14.2270   20.8800 C   0  0  0  0  0  0  0  0  0  0  0  0
   11.3260   14.2970   22.2130 C   0  0  0  0  0  0  0  0  0  0  0  0
   12.6010   15.0860   22.4810 C   0  0  0  0  0  0  0  0  0  0  0  0
   10.7120   13.4850   23.3460 C   0  0  0  0  0  0  0  0  0  0  0  0
   10.8330   13.7850   24.5310 O   0  0  0  0  0  0  0  0  0  0  0  0
   10.1410   12.5720   22.9310 N   0  0  0  0  0  0  0  0  0  0  0  0
    9.2570   11.7820   23.6700 C   0  0  0  0  0  0  0  0  0  0  0  0
    8.2270   12.4600   24.5630 C   0  0  0  0  0  0  0  0  0  0  0  0
    8.0170   13.9610   24.7690 C   0  0  0  0  0  0  0  0  0  0  0  0
    7.3080   11.5460   25.3330 C   0  0  0  0  0  0  0  0  0  0  0  0
    7.4170   10.2250   25.2200 N   0  0  0  0  0  0  0  0  0  0  0  0
    8.3660    9.7510   24.3960 C   0  0  0  0  0  0  0  0  0  0  0  0
    9.2830   10.3900   23.6180 C   0  0  0  0  0  0  0  0  0  0  0  0
   10.1550    9.4400   22.8380 C   0  0  0  0  0  0  0  0  0  0  0  0
  1  2  1  0
  2  3  2  3
  3  4  1  0
  3  5  1  0
  5  6  2  0
  5  7  1  0
  7  8  1  0
  8  9  2  0
  9 10  1  0
  9 11  1  0
 11 12  2  0
 12 13  1  0
 13 14  2  0
 14 15  1  0
 14  8  1  0
A    1
 C1 
A    2
 C2 
A    3
 C3 
A    4
 C4 
A    5
 C5 
A    6
 O1 
A    7
 N1 
A    8
 C6 
A    9
 C7 
A   10
 C8 
A   11
 C9 
A   12
 N2 
A   13
 C10
A   14
 C11
A   15
 C12
M  END
>  <similarity>  (39) 
1.0

>  <smiles>  (39) 
CC=C(C)C(=O)Nc1c(C)cncc1C

>  <cmpd_id>  (39) 
ENAMINE:Z3086674657

>  <used_subnode>  (39) 
c1ccncc1

>  <used_synthon>  (39) 
CC=C(C)C(=O)N[Xe]

>  <ref_subnode>  (39) 
c1ccncc1

>  <ref_synthon>  (39) 
N#CCC(=O)N[Xe]

>  <fragmentA>  (39) 
x0416_0A

>  <fragmentB>  (39) 
x0310_0A

>  <HA>  (39) 
15

>  <HBD>  (39) 
1

>  <HBA>  (39) 
2

>  <MW>  (39) 
204.126263132

>  <TPSA>  (39) 
41.99

>  <LogP>  (39) 
2.6031400000000007

>  <RBs>  (39) 
2

>  <G_bound>  (39) 
-11.4211364709207

>  <G_unbound>  (39) 
0.09340207887758091

>  <deltaG>  (39) 
-11.514538549798282

>  <comRMSD>  (39) 
0.7554179931891555

>  <substructure_overlap_check>  (39) 
True

>  <energy_ratio_check>  (39) 
True

>  <const_energy/unconst_energy>  (39) 
4.792200379260579

>  <sucos>  (39) 
0.5360739455635518

>  <interactions>  (39) 
Hydrophobic_THR-126,HBDonor_SER-125,Hydrophobic_TYR-90,Hydrophobic_VAL-124,Hydrophobic_TYR-89,Hydrophobic_PRO-107,Hydrophobic_HIS-21

>  <total_num_ints>  (39) 
7

>  <total_num_ints_nonhyd>  (39) 
1

>  <num_uniq_frag_ints>  (39) 
2

>  <num_repl_uniq_ints>  (39) 
2

>  <num_uniq_ints_lost>  (39) 
0

>  <num_new_uniq_ints>  (39) 
5

>  <int_check>  (39) 
True

>  <tversky>  (39) 
0.36240448502969014

>  <mean_vol_overlap>  (39) 
0.5573038302048513

>  <rotat_bonds>  (39) 
2

>  <ref_url>  (39) 
https://pubs.acs.org/doi/10.1021/acs.jcim.3c00276?fig=tgr1&ref=pdf

>  <submitter_name>  (39) 
Steph Wills

>  <submitter_institution>  (39) 
University of Oxford

>  <submitter_email>  (39) 
stephanie.wills@balliol.ox.ac.uk

>  <generation_date>  (39) 
2023-11-27

>  <method>  (39) 
FragNetv2_pt2

>  <original SMILES>  (39) 
CC=C(C)C(=O)Nc1c(C)cncc1C

>  <original_name>  (39) 
x0416_0A-x0310_0A_114329_B1X

>  <ref_mols>  (39) 
x0416_0A,x0310_0A

>  <ref_pdb>  (39) 
x0310_0A

>  <rationale>  (39) 
FragNet: 1 round bioisosteric merging incl c1ccncc1 and CC=C(C)C(=O)N[Xe] replacing N#CCC(=O)N[Xe]

$$$$
x0416_0A-x0310_0A_45426_B1X
     RDKit          3D

 15 16  0  0  0  0  0  0  0  0999 V2000
    7.6080   13.9650   23.1190 O   0  0  0  0  0  0  0  0  0  0  0  0
    7.7850   13.3390   24.4110 S   0  0  0  0  0  6  0  0  0  0  0  0
    8.5970   13.9180   25.4470 O   0  0  0  0  0  0  0  0  0  0  0  0
    6.2680   13.0100   25.0690 N   0  0  0  0  0  0  0  0  0  0  0  0
    6.1610   12.0170   26.1260 C   0  0  0  0  0  0  0  0  0  0  0  0
    5.5400   12.6080   27.3320 C   0  0  2  0  0  0  0  0  0  0  0  0
    6.0450   12.2500   28.5660 C   0  0  0  0  0  0  0  0  0  0  0  0
    5.0310   12.2290   29.4920 C   0  0  0  0  0  0  0  0  0  0  0  0
    3.8060   12.2980   28.8510 C   0  0  0  0  0  0  0  0  0  0  0  0
    4.1280   12.2680   27.4390 O   0  0  0  0  0  0  0  0  0  0  0  0
    8.4680   11.8120   24.0710 C   0  0  0  0  0  0  0  0  0  0  0  0
    7.9720   10.4800   24.5910 C   0  0  0  0  0  0  0  0  0  0  0  0
    8.6280    9.3270   24.1970 N   0  0  0  0  0  0  0  0  0  0  0  0
    9.8300    9.8510   23.2280 S   0  0  0  0  0  0  0  0  0  0  0  0
    9.5420   11.5440   23.2830 C   0  0  0  0  0  0  0  0  0  0  0  0
  1  2  2  0
  2  3  2  0
  2  4  1  0
  4  5  1  0
  6  5  1  6
  6  7  1  0
  7  8  1  0
  8  9  1  0
  9 10  1  0
  2 11  1  0
 11 12  1  0
 12 13  2  0
 13 14  1  0
 14 15  1  0
 10  6  1  0
 15 11  2  0
A    1
 O1 
A    2
 S1 
A    3
 O2 
A    4
 N1 
A    5
 C1 
A    6
 C2 
A    7
 C3 
A    8
 C4 
A    9
 C5 
A   10
 O3 
A   11
 C6 
A   12
 C7 
A   13
 N2 
A   14
 S2 
A   15
 C8 
M  END
>  <similarity>  (40) 
1.0

>  <smiles>  (40) 
O=S(=O)(NCC1CCCO1)c1cnsc1

>  <cmpd_id>  (40) 
ENAMINE:Z3641971449

>  <used_subnode>  (40) 
C1CCOC1

>  <used_synthon>  (40) 
[Xe]c1cnsc1

>  <ref_subnode>  (40) 
C1CCOC1

>  <ref_synthon>  (40) 
[Xe]n1cccn1

>  <fragmentA>  (40) 
x0416_0A

>  <fragmentB>  (40) 
x0310_0A

>  <HA>  (40) 
15

>  <HBD>  (40) 
1

>  <HBA>  (40) 
5

>  <MW>  (40) 
248.028934244

>  <TPSA>  (40) 
68.29

>  <LogP>  (40) 
0.6003999999999998

>  <RBs>  (40) 
4

>  <G_bound>  (40) 
-5.39505816102135

>  <G_unbound>  (40) 
0.8402614318890631

>  <deltaG>  (40) 
-6.235319592910413

>  <comRMSD>  (40) 
1.2859890982271627

>  <substructure_overlap_check>  (40) 
True

>  <energy_ratio_check>  (40) 
True

>  <const_energy/unconst_energy>  (40) 
3.3994019599214242

>  <sucos>  (40) 
0.5366322350339132

>  <interactions>  (40) 
Hydrophobic_VAL-124,HBAcceptor_SER-105,HBDonor_GLY-127,Hydrophobic_PRO-107

>  <total_num_ints>  (40) 
4

>  <total_num_ints_nonhyd>  (40) 
2

>  <num_uniq_frag_ints>  (40) 
2

>  <num_repl_uniq_ints>  (40) 
2

>  <num_uniq_ints_lost>  (40) 
0

>  <num_new_uniq_ints>  (40) 
2

>  <int_check>  (40) 
True

>  <tversky>  (40) 
0.2589036835084564

>  <mean_vol_overlap>  (40) 
0.5918121702028201

>  <rotat_bonds>  (40) 
4

>  <ref_url>  (40) 
https://pubs.acs.org/doi/10.1021/acs.jcim.3c00276?fig=tgr1&ref=pdf

>  <submitter_name>  (40) 
Steph Wills

>  <submitter_institution>  (40) 
University of Oxford

>  <submitter_email>  (40) 
stephanie.wills@balliol.ox.ac.uk

>  <generation_date>  (40) 
2023-11-27

>  <method>  (40) 
FragNetv2_pt2

>  <original SMILES>  (40) 
O=S(=O)(NCC1CCCO1)c1cnsc1

>  <original_name>  (40) 
x0416_0A-x0310_0A_45426_B1X

>  <ref_mols>  (40) 
x0416_0A,x0310_0A

>  <ref_pdb>  (40) 
x0310_0A

>  <rationale>  (40) 
FragNet: 1 round bioisosteric merging incl C1CCOC1 and [Xe]c1cnsc1 replacing [Xe]n1cccn1

$$$$
x0310_0A-x0416_0A_3493_PXX
     RDKit          3D

 18 19  0  0  0  0  0  0  0  0999 V2000
    7.8020   14.4490   24.0380 O   0  0  0  0  0  0  0  0  0  0  0  0
    7.6450   13.5420   24.8380 C   0  0  0  0  0  0  0  0  0  0  0  0
    7.0650   13.7130   26.0730 N   0  0  0  0  0  0  0  0  0  0  0  0
    5.6180   13.5000   26.1230 C   0  0  2  0  0  0  0  0  0  0  0  0
    4.8950   14.7430   26.6480 C   0  0  0  0  0  0  0  0  0  0  0  0
    5.7790   15.7120   27.0090 F   0  0  0  0  0  0  0  0  0  0  0  0
    4.1880   14.4590   27.7750 F   0  0  0  0  0  0  0  0  0  0  0  0
    5.3020   12.2340   26.9790 C   0  0  1  0  0  0  0  0  0  0  0  0
    6.0630   11.8370   28.2240 C   0  0  0  0  0  0  0  0  0  0  0  0
    5.2120   12.4260   29.2290 C   0  0  0  0  0  0  0  0  0  0  0  0
    3.8780   12.3500   28.8200 C   0  0  0  0  0  0  0  0  0  0  0  0
    3.9230   12.2520   27.3940 O   0  0  0  0  0  0  0  0  0  0  0  0
    8.0650   12.1710   24.5480 C   0  0  0  0  0  0  0  0  0  0  0  0
    9.1150   11.6840   23.6110 C   0  0  0  0  0  0  0  0  0  0  0  0
    9.1230   10.2010   23.6940 C   0  0  0  0  0  0  0  0  0  0  0  0
   10.2300    9.0720   22.7270 Br  0  0  0  0  0  0  0  0  0  0  0  0
    8.1020    9.8180   24.6650 N   0  0  0  0  0  0  0  0  0  0  0  0
    7.5090   10.9540   25.1420 N   0  0  0  0  0  0  0  0  0  0  0  0
  1  2  2  0
  2  3  1  0
  4  3  1  1
  4  5  1  0
  5  6  1  0
  5  7  1  0
  4  8  1  0
  8  9  1  1
  9 10  1  0
 10 11  1  0
 11 12  1  0
  2 13  1  0
 13 14  1  0
 14 15  2  0
 15 16  1  0
 15 17  1  0
 17 18  1  0
 12  8  1  0
 18 13  2  0
A    1
 O1 
A    2
 C1 
A    3
 N1 
A    4
 C2 
A    5
 C3 
A    6
 F1 
A    7
 F2 
A    8
 C4 
A    9
 C5 
A   10
 C6 
A   11
 C7 
A   12
 O2 
A   13
 C8 
A   14
 C9 
A   15
 C10
A   16
BR1 
A   17
 N2 
A   18
 N3 
M  END
>  <similarity>  (41) 
NA

>  <smiles>  (41) 
O=C(NC(C(F)F)C1CCCO1)c1cc(Br)[nH]n1

>  <cmpd_id>  (41) 
ENAMINE:Z4048469540

>  <used_subnode>  (41) 
NA

>  <used_synthon>  (41) 
NA

>  <ref_subnode>  (41) 
c1cn[nH]c1

>  <ref_synthon>  (41) 
[Xe]C1CCCO1

>  <fragmentA>  (41) 
x0310_0A

>  <fragmentB>  (41) 
x0416_0A

>  <HA>  (41) 
18

>  <HBD>  (41) 
2

>  <HBA>  (41) 
3

>  <MW>  (41) 
323.00809516400005

>  <TPSA>  (41) 
67.00999999999999

>  <LogP>  (41) 
1.7147

>  <RBs>  (41) 
4

>  <G_bound>  (41) 
-0.7773039337945825

>  <G_unbound>  (41) 
1.3815796056439504

>  <deltaG>  (41) 
-2.158883539438533

>  <comRMSD>  (41) 
0.37222619993542544

>  <substructure_overlap_check>  (41) 
True

>  <energy_ratio_check>  (41) 
True

>  <const_energy/unconst_energy>  (41) 
3.122625665528511

>  <sucos>  (41) 
0.5370062924470577

>  <interactions>  (41) 
Hydrophobic_VAL-124,Hydrophobic_PRO-107,HBDonor_SER-105

>  <total_num_ints>  (41) 
3

>  <total_num_ints_nonhyd>  (41) 
1

>  <num_uniq_frag_ints>  (41) 
2

>  <num_repl_uniq_ints>  (41) 
2

>  <num_uniq_ints_lost>  (41) 
0

>  <num_new_uniq_ints>  (41) 
1

>  <int_check>  (41) 
True

>  <tversky>  (41) 
0.2591135710474077

>  <mean_vol_overlap>  (41) 
0.5513732267166138

>  <rotat_bonds>  (41) 
4

>  <ref_url>  (41) 
https://pubs.acs.org/doi/10.1021/acs.jcim.3c00276?fig=tgr1&ref=pdf

>  <submitter_name>  (41) 
Steph Wills

>  <submitter_institution>  (41) 
University of Oxford

>  <submitter_email>  (41) 
stephanie.wills@balliol.ox.ac.uk

>  <generation_date>  (41) 
2023-11-27

>  <method>  (41) 
FragNetv2_pt2

>  <original SMILES>  (41) 
O=C(NC(C(F)F)C1CCCO1)c1cc(Br)[nH]n1

>  <original_name>  (41) 
x0310_0A-x0416_0A_3493_PXX

>  <ref_mols>  (41) 
x0310_0A,x0416_0A

>  <ref_pdb>  (41) 
x0310_0A

>  <rationale>  (41) 
FragNet: perfect merge incl c1cn[nH]c1,[Xe]C1CCCO1

$$$$
x0416_0A-x0310_0A_161908_B1X
     RDKit          3D

 17 17  0  0  0  0  0  0  0  0999 V2000
    8.3620   13.8780   24.5140 C   0  0  0  0  0  0  0  0  0  0  0  0
    8.3250   12.3880   24.5010 C   0  0  0  0  0  0  0  0  0  0  0  0
    7.2430   11.7420   25.3230 C   0  0  0  0  0  0  0  0  0  0  0  0
    7.1880   10.3610   25.3240 C   0  0  0  0  0  0  0  0  0  0  0  0
    8.0700    9.5740   24.6070 N   0  0  0  0  0  0  0  0  0  0  0  0
    9.0790   10.1880   23.8490 C   0  0  0  0  0  0  0  0  0  0  0  0
    9.9900    9.1890   23.1180 C   0  0  0  0  0  0  0  0  0  0  0  0
    9.2150   11.5770   23.7900 C   0  0  0  0  0  0  0  0  0  0  0  0
   10.2640   12.1450   23.0110 N   0  0  0  0  0  0  0  0  0  0  0  0
   10.9030   13.3000   23.3560 C   0  0  0  0  0  0  0  0  0  0  0  0
   10.7060   13.9790   24.3580 O   0  0  0  0  0  0  0  0  0  0  0  0
   11.9360   13.6560   22.3620 C   0  0  2  0  0  0  0  0  0  0  0  0
   12.7670   12.4090   22.2360 C   0  0  0  0  0  0  0  0  0  0  0  0
   12.6950   14.8300   22.7700 C   0  0  0  0  0  0  0  0  0  0  0  0
   13.5220   15.2290   21.7730 F   0  0  0  0  0  0  0  0  0  0  0  0
   13.4610   14.5340   23.8480 F   0  0  0  0  0  0  0  0  0  0  0  0
   11.9360   15.8890   23.0690 F   0  0  0  0  0  0  0  0  0  0  0  0
  1  2  1  0
  2  3  2  0
  3  4  1  0
  4  5  2  0
  5  6  1  0
  6  7  1  0
  6  8  2  0
  8  9  1  0
  9 10  1  0
 10 11  2  0
 10 12  1  0
 12 13  1  1
 12 14  1  0
 14 15  1  0
 14 16  1  0
 14 17  1  0
  8  2  1  0
A    1
 C1 
A    2
 C2 
A    3
 C3 
A    4
 C4 
A    5
 N1 
A    6
 C5 
A    7
 C6 
A    8
 C7 
A    9
 N2 
A   10
 C8 
A   11
 O1 
A   12
 C9 
A   13
 C10
A   14
 C11
A   15
 F1 
A   16
 F2 
A   17
 F3 
M  END
>  <similarity>  (42) 
1.0

>  <smiles>  (42) 
Cc1ccnc(C)c1NC(=O)C(C)C(F)(F)F

>  <cmpd_id>  (42) 
ENAMINE:Z2414552905

>  <used_subnode>  (42) 
c1ccncc1

>  <used_synthon>  (42) 
CC(C(=O)N[Xe])C(F)(F)F

>  <ref_subnode>  (42) 
c1ccncc1

>  <ref_synthon>  (42) 
N#CCC(=O)N[Xe]

>  <fragmentA>  (42) 
x0416_0A

>  <fragmentB>  (42) 
x0310_0A

>  <HA>  (42) 
17

>  <HBD>  (42) 
1

>  <HBA>  (42) 
2

>  <MW>  (42) 
246.097997696

>  <TPSA>  (42) 
41.99

>  <LogP>  (42) 
2.8353400000000013

>  <RBs>  (42) 
2

>  <G_bound>  (42) 
-7.722986322682224

>  <G_unbound>  (42) 
0.4548562077375194

>  <deltaG>  (42) 
-8.177842530419744

>  <comRMSD>  (42) 
0.47261377913588964

>  <substructure_overlap_check>  (42) 
True

>  <energy_ratio_check>  (42) 
True

>  <const_energy/unconst_energy>  (42) 
4.231796513463867

>  <sucos>  (42) 
0.5372767656617982

>  <interactions>  (42) 
Hydrophobic_CYS-110,HBDonor_SER-125,Hydrophobic_VAL-124,HBAcceptor_SER-105,Hydrophobic_PRO-107,Hydrophobic_HIS-21

>  <total_num_ints>  (42) 
6

>  <total_num_ints_nonhyd>  (42) 
2

>  <num_uniq_frag_ints>  (42) 
2

>  <num_repl_uniq_ints>  (42) 
2

>  <num_uniq_ints_lost>  (42) 
0

>  <num_new_uniq_ints>  (42) 
4

>  <int_check>  (42) 
True

>  <tversky>  (42) 
0.34666868365396647

>  <mean_vol_overlap>  (42) 
0.5564480438072563

>  <rotat_bonds>  (42) 
2

>  <ref_url>  (42) 
https://pubs.acs.org/doi/10.1021/acs.jcim.3c00276?fig=tgr1&ref=pdf

>  <submitter_name>  (42) 
Steph Wills

>  <submitter_institution>  (42) 
University of Oxford

>  <submitter_email>  (42) 
stephanie.wills@balliol.ox.ac.uk

>  <generation_date>  (42) 
2023-11-27

>  <method>  (42) 
FragNetv2_pt2

>  <original SMILES>  (42) 
Cc1ccnc(C)c1NC(=O)C(C)C(F)(F)F

>  <original_name>  (42) 
x0416_0A-x0310_0A_161908_B1X

>  <ref_mols>  (42) 
x0416_0A,x0310_0A

>  <ref_pdb>  (42) 
x0310_0A

>  <rationale>  (42) 
FragNet: 1 round bioisosteric merging incl c1ccncc1 and CC(C(=O)N[Xe])C(F)(F)F replacing N#CCC(=O)N[Xe]

$$$$
x0416_0A-x0310_0A_115604_B1X
     RDKit          3D

 16 16  0  0  0  0  0  0  0  0999 V2000
    9.9380    9.3280   22.9920 C   0  0  0  0  0  0  0  0  0  0  0  0
    9.0880   10.3210   23.7730 C   0  0  0  0  0  0  0  0  0  0  0  0
    8.0930    9.8250   24.5490 N   0  0  0  0  0  0  0  0  0  0  0  0
    7.3320   10.6890   25.2360 C   0  0  0  0  0  0  0  0  0  0  0  0
    6.3460   10.2250   26.0130 F   0  0  0  0  0  0  0  0  0  0  0  0
    7.5480   12.1930   25.1620 C   0  0  0  0  0  0  0  0  0  0  0  0
    8.5780   12.6500   24.3590 C   0  0  0  0  0  0  0  0  0  0  0  0
    9.3380   11.6750   23.6750 C   0  0  0  0  0  0  0  0  0  0  0  0
   10.3000   12.1870   22.9590 N   0  0  0  0  0  0  0  0  0  0  0  0
   11.1360   13.1480   23.4980 C   0  0  0  0  0  0  0  0  0  0  0  0
   10.9330   13.5930   24.6240 O   0  0  0  0  0  0  0  0  0  0  0  0
   12.2950   13.7110   22.7810 C   0  0  0  0  0  0  0  0  0  0  0  0
   12.4920   15.1290   23.1000 C   0  0  0  0  0  0  0  0  0  0  0  0
   12.2150   15.8870   21.9970 C   0  0  0  0  0  0  0  0  0  0  0  0
   11.1240   15.3860   21.3610 F   0  0  0  0  0  0  0  0  0  0  0  0
   13.2350   15.7960   21.1330 F   0  0  0  0  0  0  0  0  0  0  0  0
  1  2  1  0
  2  3  2  0
  3  4  1  0
  4  5  1  0
  4  6  2  0
  6  7  1  0
  7  8  2  0
  8  9  1  0
  9 10  1  0
 10 11  2  0
 10 12  1  0
 12 13  1  0
 13 14  1  0
 14 15  1  0
 14 16  1  0
  8  2  1  0
A    1
 C1 
A    2
 C2 
A    3
 N1 
A    4
 C3 
A    5
 F1 
A    6
 C4 
A    7
 C5 
A    8
 C6 
A    9
 N2 
A   10
 C7 
A   11
 O1 
A   12
 C8 
A   13
 C9 
A   14
 C10
A   15
 F2 
A   16
 F3 
M  END
>  <similarity>  (43) 
1.0

>  <smiles>  (43) 
Cc1nc(F)ccc1NC(=O)CCC(F)F

>  <cmpd_id>  (43) 
ENAMINE:Z3092692215

>  <used_subnode>  (43) 
c1ccncc1

>  <used_synthon>  (43) 
O=C(CCC(F)F)N[Xe]

>  <ref_subnode>  (43) 
c1ccncc1

>  <ref_synthon>  (43) 
N#CCC(=O)N[Xe]

>  <fragmentA>  (43) 
x0416_0A

>  <fragmentB>  (43) 
x0310_0A

>  <HA>  (43) 
16

>  <HBD>  (43) 
1

>  <HBA>  (43) 
2

>  <MW>  (43) 
232.082347632

>  <TPSA>  (43) 
41.99

>  <LogP>  (43) 
2.512920000000001

>  <RBs>  (43) 
4

>  <G_bound>  (43) 
-5.66853092738074

>  <G_unbound>  (43) 
0.3459037438986544

>  <deltaG>  (43) 
-6.014434671279394

>  <comRMSD>  (43) 
0.4614240237515657

>  <substructure_overlap_check>  (43) 
True

>  <energy_ratio_check>  (43) 
True

>  <const_energy/unconst_energy>  (43) 
4.296809852246153

>  <sucos>  (43) 
0.537796207541286

>  <interactions>  (43) 
HBDonor_SER-125,Hydrophobic_VAL-124,Hydrophobic_TYR-89,Hydrophobic_PRO-107,Hydrophobic_HIS-21

>  <total_num_ints>  (43) 
5

>  <total_num_ints_nonhyd>  (43) 
1

>  <num_uniq_frag_ints>  (43) 
2

>  <num_repl_uniq_ints>  (43) 
2

>  <num_uniq_ints_lost>  (43) 
0

>  <num_new_uniq_ints>  (43) 
3

>  <int_check>  (43) 
True

>  <tversky>  (43) 
0.3461962154162484

>  <mean_vol_overlap>  (43) 
0.5925847337441851

>  <rotat_bonds>  (43) 
4

>  <ref_url>  (43) 
https://pubs.acs.org/doi/10.1021/acs.jcim.3c00276?fig=tgr1&ref=pdf

>  <submitter_name>  (43) 
Steph Wills

>  <submitter_institution>  (43) 
University of Oxford

>  <submitter_email>  (43) 
stephanie.wills@balliol.ox.ac.uk

>  <generation_date>  (43) 
2023-11-27

>  <method>  (43) 
FragNetv2_pt2

>  <original SMILES>  (43) 
Cc1nc(F)ccc1NC(=O)CCC(F)F

>  <original_name>  (43) 
x0416_0A-x0310_0A_115604_B1X

>  <ref_mols>  (43) 
x0416_0A,x0310_0A

>  <ref_pdb>  (43) 
x0310_0A

>  <rationale>  (43) 
FragNet: 1 round bioisosteric merging incl c1ccncc1 and O=C(CCC(F)F)N[Xe] replacing N#CCC(=O)N[Xe]

$$$$
x0416_0A-x0310_0A_151715_B1X
     RDKit          3D

 16 16  0  0  0  0  0  0  0  0999 V2000
   10.1820    9.5910   22.8240 C   0  0  0  0  0  0  0  0  0  0  0  0
    9.2420   10.4690   23.6150 C   0  0  0  0  0  0  0  0  0  0  0  0
    8.2920    9.6800   24.4640 C   0  0  0  0  0  0  0  0  0  0  0  0
    7.3830   10.3430   25.2210 N   0  0  0  0  0  0  0  0  0  0  0  0
    7.3160   11.7210   25.2260 C   0  0  0  0  0  0  0  0  0  0  0  0
    8.1880   12.4720   24.4520 C   0  0  0  0  0  0  0  0  0  0  0  0
    9.1690   11.8720   23.6330 C   0  0  0  0  0  0  0  0  0  0  0  0
   10.0380   12.5690   22.8740 N   0  0  0  0  0  0  0  0  0  0  0  0
   10.9220   13.2760   23.5930 C   0  0  0  0  0  0  0  0  0  0  0  0
   10.6420   13.6830   24.7150 O   0  0  0  0  0  0  0  0  0  0  0  0
   12.1730   13.5860   23.0980 C   0  0  0  0  0  0  0  0  0  0  0  0
   12.4890   14.9190   23.2300 C   0  0  0  0  0  0  0  0  0  0  0  0
   12.2290   15.5810   21.9040 C   0  0  0  0  0  0  0  0  0  0  0  0
   13.3540   15.5850   21.1720 F   0  0  0  0  0  0  0  0  0  0  0  0
   11.2440   15.1050   21.1160 F   0  0  0  0  0  0  0  0  0  0  0  0
   11.9130   16.8800   22.0870 F   0  0  0  0  0  0  0  0  0  0  0  0
  1  2  1  0
  2  3  2  0
  3  4  1  0
  4  5  2  0
  5  6  1  0
  6  7  2  0
  7  8  1  0
  8  9  1  0
  9 10  2  0
  9 11  1  0
 11 12  1  0
 12 13  1  0
 13 14  1  0
 13 15  1  0
 13 16  1  0
  7  2  1  0
A    1
 C1 
A    2
 C2 
A    3
 C3 
A    4
 N1 
A    5
 C4 
A    6
 C5 
A    7
 C6 
A    8
 N2 
A    9
 C7 
A   10
 O1 
A   11
 C8 
A   12
 C9 
A   13
 C10
A   14
 F1 
A   15
 F2 
A   16
 F3 
M  END
>  <similarity>  (44) 
1.0

>  <smiles>  (44) 
Cc1cnccc1NC(=O)CCC(F)(F)F

>  <cmpd_id>  (44) 
ENAMINE:Z1274147490

>  <used_subnode>  (44) 
c1ccncc1

>  <used_synthon>  (44) 
O=C(CCC(F)(F)F)N[Xe]

>  <ref_subnode>  (44) 
c1ccncc1

>  <ref_synthon>  (44) 
N#CCC(=O)N[Xe]

>  <fragmentA>  (44) 
x0416_0A

>  <fragmentB>  (44) 
x0310_0A

>  <HA>  (44) 
16

>  <HBD>  (44) 
1

>  <HBA>  (44) 
2

>  <MW>  (44) 
232.082347632

>  <TPSA>  (44) 
41.99

>  <LogP>  (44) 
2.6710200000000004

>  <RBs>  (44) 
3

>  <G_bound>  (44) 
-6.342922979659237

>  <G_unbound>  (44) 
1.2187245341297668

>  <deltaG>  (44) 
-7.561647513789004

>  <comRMSD>  (44) 
0.8434470761568951

>  <substructure_overlap_check>  (44) 
True

>  <energy_ratio_check>  (44) 
True

>  <const_energy/unconst_energy>  (44) 
4.196579244201225

>  <sucos>  (44) 
0.5387590684906957

>  <interactions>  (44) 
HBDonor_SER-125,Hydrophobic_VAL-124,Hydrophobic_TYR-89,Hydrophobic_PRO-107,Hydrophobic_HIS-21

>  <total_num_ints>  (44) 
5

>  <total_num_ints_nonhyd>  (44) 
1

>  <num_uniq_frag_ints>  (44) 
2

>  <num_repl_uniq_ints>  (44) 
2

>  <num_uniq_ints_lost>  (44) 
0

>  <num_new_uniq_ints>  (44) 
3

>  <int_check>  (44) 
True

>  <tversky>  (44) 
0.3545922176461098

>  <mean_vol_overlap>  (44) 
0.5587893498755535

>  <rotat_bonds>  (44) 
3

>  <ref_url>  (44) 
https://pubs.acs.org/doi/10.1021/acs.jcim.3c00276?fig=tgr1&ref=pdf

>  <submitter_name>  (44) 
Steph Wills

>  <submitter_institution>  (44) 
University of Oxford

>  <submitter_email>  (44) 
stephanie.wills@balliol.ox.ac.uk

>  <generation_date>  (44) 
2023-11-27

>  <method>  (44) 
FragNetv2_pt2

>  <original SMILES>  (44) 
Cc1cnccc1NC(=O)CCC(F)(F)F

>  <original_name>  (44) 
x0416_0A-x0310_0A_151715_B1X

>  <ref_mols>  (44) 
x0416_0A,x0310_0A

>  <ref_pdb>  (44) 
x0310_0A

>  <rationale>  (44) 
FragNet: 1 round bioisosteric merging incl c1ccncc1 and O=C(CCC(F)(F)F)N[Xe] replacing N#CCC(=O)N[Xe]

$$$$
x0416_0A-x0310_0A_128272_B1X
     RDKit          3D

 13 13  0  0  0  0  0  0  0  0999 V2000
   12.2220   15.4210   22.4890 C   0  0  0  0  0  0  0  0  0  0  0  0
   12.3410   13.9910   23.0270 C   0  0  0  0  0  0  0  0  0  0  0  0
   13.0580   13.9960   24.3740 C   0  0  0  0  0  0  0  0  0  0  0  0
   10.9750   13.3580   23.1820 C   0  0  0  0  0  0  0  0  0  0  0  0
   10.6170   13.7030   24.5230 O   0  0  0  0  0  0  0  0  0  0  0  0
    9.8860   12.6160   22.7500 N   0  0  0  0  0  0  0  0  0  0  0  0
    9.0530   11.9220   23.6040 C   0  0  0  0  0  0  0  0  0  0  0  0
    8.1310   12.5340   24.4330 C   0  0  0  0  0  0  0  0  0  0  0  0
    7.2860   11.8370   25.2980 C   0  0  0  0  0  0  0  0  0  0  0  0
    7.3240   10.4940   25.3780 N   0  0  0  0  0  0  0  0  0  0  0  0
    8.1970    9.8520   24.5970 C   0  0  0  0  0  0  0  0  0  0  0  0
    9.0550   10.4280   23.7280 C   0  0  0  0  0  0  0  0  0  0  0  0
   10.1750    9.2870   22.7380 Br  0  0  0  0  0  0  0  0  0  0  0  0
  1  2  1  0
  2  3  1  0
  2  4  1  0
  4  5  2  0
  4  6  1  0
  6  7  1  0
  7  8  2  0
  8  9  1  0
  9 10  2  0
 10 11  1  0
 11 12  2  0
 12 13  1  0
 12  7  1  0
A    1
 C1 
A    2
 C2 
A    3
 C3 
A    4
 C4 
A    5
 O1 
A    6
 N1 
A    7
 C5 
A    8
 C6 
A    9
 C7 
A   10
 N2 
A   11
 C8 
A   12
 C9 
A   13
BR1 
M  END
>  <similarity>  (45) 
1.0

>  <smiles>  (45) 
CC(C)C(=O)Nc1ccncc1Br

>  <cmpd_id>  (45) 
CHEMSPACE-BB:CSMB00013040889,ENAMINE:Z1524747080

>  <used_subnode>  (45) 
c1ccncc1

>  <used_synthon>  (45) 
CC(C)C(=O)N[Xe]

>  <ref_subnode>  (45) 
c1ccncc1

>  <ref_synthon>  (45) 
N#CCC(=O)N[Xe]

>  <fragmentA>  (45) 
x0416_0A

>  <fragmentB>  (45) 
x0310_0A

>  <HA>  (45) 
13

>  <HBD>  (45) 
1

>  <HBA>  (45) 
2

>  <MW>  (45) 
242.005475072

>  <TPSA>  (45) 
41.99

>  <LogP>  (45) 
2.4386

>  <RBs>  (45) 
2

>  <G_bound>  (45) 
-7.683215064422074

>  <G_unbound>  (45) 
0.1268398296991463

>  <deltaG>  (45) 
-7.81005489412122

>  <comRMSD>  (45) 
0.9271030437996977

>  <substructure_overlap_check>  (45) 
True

>  <energy_ratio_check>  (45) 
True

>  <const_energy/unconst_energy>  (45) 
6.735844501615905

>  <sucos>  (45) 
0.5391546001065528

>  <interactions>  (45) 
HBDonor_SER-125,Hydrophobic_TYR-90,Hydrophobic_VAL-124,Hydrophobic_TYR-89,Hydrophobic_PRO-107,Hydrophobic_HIS-21

>  <total_num_ints>  (45) 
6

>  <total_num_ints_nonhyd>  (45) 
1

>  <num_uniq_frag_ints>  (45) 
2

>  <num_repl_uniq_ints>  (45) 
2

>  <num_uniq_ints_lost>  (45) 
0

>  <num_new_uniq_ints>  (45) 
4

>  <int_check>  (45) 
True

>  <tversky>  (45) 
0.30220835148246933

>  <mean_vol_overlap>  (45) 
0.6168876419762603

>  <rotat_bonds>  (45) 
2

>  <ref_url>  (45) 
https://pubs.acs.org/doi/10.1021/acs.jcim.3c00276?fig=tgr1&ref=pdf

>  <submitter_name>  (45) 
Steph Wills

>  <submitter_institution>  (45) 
University of Oxford

>  <submitter_email>  (45) 
stephanie.wills@balliol.ox.ac.uk

>  <generation_date>  (45) 
2023-11-27

>  <method>  (45) 
FragNetv2_pt2

>  <original SMILES>  (45) 
CC(C)C(=O)Nc1ccncc1Br

>  <original_name>  (45) 
x0416_0A-x0310_0A_128272_B1X

>  <ref_mols>  (45) 
x0416_0A,x0310_0A

>  <ref_pdb>  (45) 
x0310_0A

>  <rationale>  (45) 
FragNet: 1 round bioisosteric merging incl c1ccncc1 and CC(C)C(=O)N[Xe] replacing N#CCC(=O)N[Xe]

$$$$
x0416_0A-x0310_0A_1137_PXX
     RDKit          3D

 17 19  0  0  0  0  0  0  0  0999 V2000
    8.1590   14.6930   25.7280 O   0  0  0  0  0  0  0  0  0  0  0  0
    7.8270   13.7110   25.0610 C   0  0  0  0  0  0  0  0  0  0  0  0
    6.5420   13.2000   25.0740 N   0  0  0  0  0  0  0  0  0  0  0  0
    5.6760   13.4340   26.1550 C   0  0  0  0  0  0  0  0  0  0  0  0
    5.1700   12.2190   26.8950 C   0  0  1  0  0  0  0  0  0  0  0  0
    6.0070   11.9430   28.1300 C   0  0  0  0  0  0  0  0  0  0  0  0
    5.3420   12.8610   29.2120 C   0  0  0  0  0  0  0  0  0  0  0  0
    4.0120   12.1700   28.7420 C   0  0  0  0  0  0  0  0  0  0  0  0
    4.0120   12.1780   27.3070 O   0  0  0  0  0  0  0  0  0  0  0  0
    8.8450   13.0230   24.2050 C   0  0  0  0  0  0  0  0  0  0  0  0
    8.7550   11.5460   24.1670 C   0  0  0  0  0  0  0  0  0  0  0  0
    9.6730   10.8720   23.2680 C   0  0  0  0  0  0  0  0  0  0  0  0
    9.3640    9.4680   23.4470 C   0  0  0  0  0  0  0  0  0  0  0  0
    8.3330    9.4590   24.3940 N   0  0  0  0  0  0  0  0  0  0  0  0
    7.9290   10.7220   24.8630 N   0  0  0  0  0  0  0  0  0  0  0  0
   10.2550   13.5890   24.1490 C   0  0  0  0  0  0  0  0  0  0  0  0
    9.3790   13.6550   22.9280 C   0  0  0  0  0  0  0  0  0  0  0  0
  1  2  2  0
  2  3  1  0
  3  4  1  0
  5  4  1  1
  5  6  1  0
  6  7  1  0
  7  8  1  0
  8  9  1  0
  2 10  1  0
 10 11  1  0
 11 12  1  0
 12 13  2  0
 13 14  1  0
 14 15  1  0
 10 16  1  0
 16 17  1  0
  9  5  1  0
 17 10  1  0
 15 11  2  0
A    1
 O1 
A    2
 C1 
A    3
 N1 
A    4
 C2 
A    5
 C3 
A    6
 C4 
A    7
 C5 
A    8
 C6 
A    9
 O2 
A   10
 C7 
A   11
 C8 
A   12
 C9 
A   13
 C10
A   14
 N2 
A   15
 N3 
A   16
 C11
A   17
 C12
M  END
>  <similarity>  (46) 
NA

>  <smiles>  (46) 
O=C(NCC1CCCO1)C1(c2cc[nH]n2)CC1

>  <cmpd_id>  (46) 
ENAMINE:Z4198320656,ENAMINE:Z4198887818

>  <used_subnode>  (46) 
NA

>  <used_synthon>  (46) 
NA

>  <ref_subnode>  (46) 
C1CCOC1

>  <ref_synthon>  (46) 
[Xe]c1cc[nH]n1

>  <fragmentA>  (46) 
x0416_0A

>  <fragmentB>  (46) 
x0310_0A

>  <HA>  (46) 
17

>  <HBD>  (46) 
2

>  <HBA>  (46) 
3

>  <MW>  (46) 
235.132076784

>  <TPSA>  (46) 
67.00999999999999

>  <LogP>  (46) 
0.7364999999999988

>  <RBs>  (46) 
4

>  <G_bound>  (46) 
-3.88538033140944

>  <G_unbound>  (46) 
1.0756282049944332

>  <deltaG>  (46) 
-4.961008536403873

>  <comRMSD>  (46) 
0.40731695929212525

>  <substructure_overlap_check>  (46) 
True

>  <energy_ratio_check>  (46) 
True

>  <const_energy/unconst_energy>  (46) 
1.3618444838494133

>  <sucos>  (46) 
0.5403881394002201

>  <interactions>  (46) 
HBDonor_GLY-127,Hydrophobic_VAL-124,Hydrophobic_PRO-107,HBDonor_SER-105,HBDonor_GLU-106

>  <total_num_ints>  (46) 
5

>  <total_num_ints_nonhyd>  (46) 
3

>  <num_uniq_frag_ints>  (46) 
2

>  <num_repl_uniq_ints>  (46) 
2

>  <num_uniq_ints_lost>  (46) 
0

>  <num_new_uniq_ints>  (46) 
3

>  <int_check>  (46) 
True

>  <tversky>  (46) 
0.33421542321453035

>  <mean_vol_overlap>  (46) 
0.5816581522936731

>  <rotat_bonds>  (46) 
4

>  <ref_url>  (46) 
https://pubs.acs.org/doi/10.1021/acs.jcim.3c00276?fig=tgr1&ref=pdf

>  <submitter_name>  (46) 
Steph Wills

>  <submitter_institution>  (46) 
University of Oxford

>  <submitter_email>  (46) 
stephanie.wills@balliol.ox.ac.uk

>  <generation_date>  (46) 
2023-11-27

>  <method>  (46) 
FragNetv2_pt2

>  <original SMILES>  (46) 
O=C(NCC1CCCO1)C1(c2cc[nH]n2)CC1

>  <original_name>  (46) 
x0416_0A-x0310_0A_1137_PXX

>  <ref_mols>  (46) 
x0416_0A,x0310_0A

>  <ref_pdb>  (46) 
x0310_0A

>  <rationale>  (46) 
FragNet: perfect merge incl C1CCOC1,[Xe]c1cc[nH]n1

$$$$
x0416_0A-x0310_0A_170055_B1X
     RDKit          3D

 16 16  0  0  0  0  0  0  0  0999 V2000
   10.8450    8.5750   23.2660 C   0  0  0  0  0  0  0  0  0  0  0  0
    9.7420    9.2980   22.6560 C   0  0  0  0  0  0  0  0  0  0  0  0
    9.0210   10.2200   23.6360 C   0  0  0  0  0  0  0  0  0  0  0  0
    8.0180    9.6530   24.5300 N   0  0  0  0  0  0  0  0  0  0  0  0
    7.3550   10.6300   25.3990 C   0  0  0  0  0  0  0  0  0  0  0  0
    7.7460   12.0980   25.3150 C   0  0  0  0  0  0  0  0  0  0  0  0
    8.7240   12.5110   24.4350 C   0  0  0  0  0  0  0  0  0  0  0  0
    9.3560   11.5870   23.6070 C   0  0  0  0  0  0  0  0  0  0  0  0
   10.2740   12.1990   22.8350 N   0  0  0  0  0  0  0  0  0  0  0  0
   11.0540   13.3370   23.2150 C   0  0  0  0  0  0  0  0  0  0  0  0
   11.0880   13.8040   24.3540 O   0  0  0  0  0  0  0  0  0  0  0  0
   11.8420   13.9430   22.0610 C   0  0  0  0  0  0  0  0  0  0  0  0
   12.6340   14.9380   22.6000 C   0  0  0  0  0  0  0  0  0  0  0  0
   13.3280   14.5140   23.6730 F   0  0  0  0  0  0  0  0  0  0  0  0
   13.5210   15.3240   21.6540 F   0  0  0  0  0  0  0  0  0  0  0  0
   11.9290   16.0460   22.9100 F   0  0  0  0  0  0  0  0  0  0  0  0
  1  2  1  0
  2  3  1  0
  3  4  2  0
  4  5  1  0
  5  6  2  0
  6  7  1  0
  7  8  2  0
  8  9  1  0
  9 10  1  0
 10 11  2  0
 10 12  1  0
 12 13  1  0
 13 14  1  0
 13 15  1  0
 13 16  1  0
  8  3  1  0
A    1
 C1 
A    2
 C2 
A    3
 C3 
A    4
 N1 
A    5
 C4 
A    6
 C5 
A    7
 C6 
A    8
 C7 
A    9
 N2 
A   10
 C8 
A   11
 O1 
A   12
 C9 
A   13
 C10
A   14
 F1 
A   15
 F2 
A   16
 F3 
M  END
>  <similarity>  (47) 
1.0

>  <smiles>  (47) 
CCc1ncccc1NC(=O)CC(F)(F)F

>  <cmpd_id>  (47) 
ENAMINE:Z3093775605

>  <used_subnode>  (47) 
c1ccncc1

>  <used_synthon>  (47) 
O=C(CC(F)(F)F)N[Xe]

>  <ref_subnode>  (47) 
c1ccncc1

>  <ref_synthon>  (47) 
N#CCC(=O)N[Xe]

>  <fragmentA>  (47) 
x0416_0A

>  <fragmentB>  (47) 
x0310_0A

>  <HA>  (47) 
16

>  <HBD>  (47) 
1

>  <HBA>  (47) 
2

>  <MW>  (47) 
232.082347632

>  <TPSA>  (47) 
41.99

>  <LogP>  (47) 
2.5349000000000004

>  <RBs>  (47) 
3

>  <G_bound>  (47) 
-5.0100607983537095

>  <G_unbound>  (47) 
0.3127000657300866

>  <deltaG>  (47) 
-5.322760864083796

>  <comRMSD>  (47) 
0.4004823373190871

>  <substructure_overlap_check>  (47) 
True

>  <energy_ratio_check>  (47) 
True

>  <const_energy/unconst_energy>  (47) 
4.5014117951979395

>  <sucos>  (47) 
0.5404230926148409

>  <interactions>  (47) 
Hydrophobic_CYS-110,HBDonor_SER-125,Hydrophobic_VAL-124,HBAcceptor_SER-105,Hydrophobic_ASP-109,Hydrophobic_PRO-107,Hydrophobic_HIS-21

>  <total_num_ints>  (47) 
7

>  <total_num_ints_nonhyd>  (47) 
2

>  <num_uniq_frag_ints>  (47) 
2

>  <num_repl_uniq_ints>  (47) 
2

>  <num_uniq_ints_lost>  (47) 
0

>  <num_new_uniq_ints>  (47) 
5

>  <int_check>  (47) 
True

>  <tversky>  (47) 
0.3036341669845644

>  <mean_vol_overlap>  (47) 
0.5723011977380522

>  <rotat_bonds>  (47) 
3

>  <ref_url>  (47) 
https://pubs.acs.org/doi/10.1021/acs.jcim.3c00276?fig=tgr1&ref=pdf

>  <submitter_name>  (47) 
Steph Wills

>  <submitter_institution>  (47) 
University of Oxford

>  <submitter_email>  (47) 
stephanie.wills@balliol.ox.ac.uk

>  <generation_date>  (47) 
2023-11-27

>  <method>  (47) 
FragNetv2_pt2

>  <original SMILES>  (47) 
CCc1ncccc1NC(=O)CC(F)(F)F

>  <original_name>  (47) 
x0416_0A-x0310_0A_170055_B1X

>  <ref_mols>  (47) 
x0416_0A,x0310_0A

>  <ref_pdb>  (47) 
x0310_0A

>  <rationale>  (47) 
FragNet: 1 round bioisosteric merging incl c1ccncc1 and O=C(CC(F)(F)F)N[Xe] replacing N#CCC(=O)N[Xe]

$$$$
x0416_0A-x0310_0A_39779_B1X
     RDKit          3D

 16 17  0  0  0  0  0  0  0  0999 V2000
    8.3970   13.9310   25.3110 O   0  0  0  0  0  0  0  0  0  0  0  0
    7.7110   12.9650   24.9860 C   0  0  0  0  0  0  0  0  0  0  0  0
    6.3510   12.7630   25.1040 N   0  0  0  0  0  0  0  0  0  0  0  0
    5.6220   13.1360   26.2890 C   0  0  0  0  0  0  0  0  0  0  0  0
    5.3430   11.9850   27.2750 C   0  0  1  0  0  0  0  0  0  0  0  0
    5.5580   10.5090   26.8380 C   0  0  0  0  0  0  0  0  0  0  0  0
    4.7070    9.7280   27.2580 O   0  0  0  0  0  0  0  0  0  0  0  0
    6.1380   12.2020   28.5570 C   0  0  0  0  0  0  0  0  0  0  0  0
    5.2210   12.6790   29.5690 C   0  0  0  0  0  0  0  0  0  0  0  0
    3.8240   12.6730   28.9780 C   0  0  0  0  0  0  0  0  0  0  0  0
    3.9400   12.0870   27.6690 O   0  0  0  0  0  0  0  0  0  0  0  0
    8.4420   11.8010   24.3460 C   0  0  0  0  0  0  0  0  0  0  0  0
    7.9360   10.4460   24.7450 C   0  0  0  0  0  0  0  0  0  0  0  0
    8.6240    9.3180   24.1230 N   0  0  0  0  0  0  0  0  0  0  0  0
    9.8250    9.8900   23.1290 S   0  0  0  0  0  0  0  0  0  0  0  0
    9.5780   11.6990   23.3810 C   0  0  0  0  0  0  0  0  0  0  0  0
  1  2  2  0
  2  3  1  0
  3  4  1  0
  5  4  1  6
  5  6  1  0
  6  7  1  0
  5  8  1  0
  8  9  1  0
  9 10  1  0
 10 11  1  0
  2 12  1  0
 12 13  1  0
 13 14  2  0
 14 15  1  0
 15 16  1  0
 11  5  1  0
 16 12  2  0
A    1
 O1 
A    2
 C1 
A    3
 N1 
A    4
 C2 
A    5
 C3 
A    6
 C4 
A    7
 O2 
A    8
 C5 
A    9
 C6 
A   10
 C7 
A   11
 O3 
A   12
 C8 
A   13
 C9 
A   14
 N2 
A   15
 S1 
A   16
 C10
M  END
>  <similarity>  (48) 
1.0

>  <smiles>  (48) 
O=C(NCC1(CO)CCCO1)c1cnsc1

>  <cmpd_id>  (48) 
ENAMINE:Z4425250989

>  <used_subnode>  (48) 
C1CCOC1

>  <used_synthon>  (48) 
[Xe]c1cnsc1

>  <ref_subnode>  (48) 
C1CCOC1

>  <ref_synthon>  (48) 
[Xe]n1cccn1

>  <fragmentA>  (48) 
x0416_0A

>  <fragmentB>  (48) 
x0310_0A

>  <HA>  (48) 
16

>  <HBD>  (48) 
2

>  <HBA>  (48) 
5

>  <MW>  (48) 
242.072513308

>  <TPSA>  (48) 
71.45

>  <LogP>  (48) 
0.41439999999999944

>  <RBs>  (48) 
4

>  <G_bound>  (48) 
-4.918903620776222

>  <G_unbound>  (48) 
0.9424033843371057

>  <deltaG>  (48) 
-5.861307005113328

>  <comRMSD>  (48) 
1.3031433646466015

>  <substructure_overlap_check>  (48) 
True

>  <energy_ratio_check>  (48) 
True

>  <const_energy/unconst_energy>  (48) 
4.861939914431073

>  <sucos>  (48) 
0.5442035481162306

>  <interactions>  (48) 
Hydrophobic_VAL-124,HBAcceptor_SER-105,HBDonor_GLY-127,Hydrophobic_PRO-107

>  <total_num_ints>  (48) 
4

>  <total_num_ints_nonhyd>  (48) 
2

>  <num_uniq_frag_ints>  (48) 
2

>  <num_repl_uniq_ints>  (48) 
2

>  <num_uniq_ints_lost>  (48) 
0

>  <num_new_uniq_ints>  (48) 
2

>  <int_check>  (48) 
True

>  <tversky>  (48) 
0.25551870145934463

>  <mean_vol_overlap>  (48) 
0.5714366749018217

>  <rotat_bonds>  (48) 
4

>  <ref_url>  (48) 
https://pubs.acs.org/doi/10.1021/acs.jcim.3c00276?fig=tgr1&ref=pdf

>  <submitter_name>  (48) 
Steph Wills

>  <submitter_institution>  (48) 
University of Oxford

>  <submitter_email>  (48) 
stephanie.wills@balliol.ox.ac.uk

>  <generation_date>  (48) 
2023-11-27

>  <method>  (48) 
FragNetv2_pt2

>  <original SMILES>  (48) 
O=C(NCC1(CO)CCCO1)c1cnsc1

>  <original_name>  (48) 
x0416_0A-x0310_0A_39779_B1X

>  <ref_mols>  (48) 
x0416_0A,x0310_0A

>  <ref_pdb>  (48) 
x0310_0A

>  <rationale>  (48) 
FragNet: 1 round bioisosteric merging incl C1CCOC1 and [Xe]c1cnsc1 replacing [Xe]n1cccn1

$$$$
x0416_0A-x0310_0A_179952_B1X
     RDKit          3D

 15 15  0  0  0  0  0  0  0  0999 V2000
   10.8430   13.8510   24.5750 O   0  0  0  0  0  0  0  0  0  0  0  0
   11.0070   13.3690   23.4470 C   0  0  0  0  0  0  0  0  0  0  0  0
   12.2320   13.7340   22.6410 C   0  0  0  0  0  0  0  0  0  0  0  0
   12.0620   15.1360   22.0830 C   0  0  0  0  0  0  0  0  0  0  0  0
   12.0440   16.0120   23.1070 F   0  0  0  0  0  0  0  0  0  0  0  0
   13.0770   15.5120   21.2920 F   0  0  0  0  0  0  0  0  0  0  0  0
   10.9070   15.2900   21.4060 F   0  0  0  0  0  0  0  0  0  0  0  0
   10.0660   12.4890   22.9420 N   0  0  0  0  0  0  0  0  0  0  0  0
    9.1430   11.8800   23.7100 C   0  0  0  0  0  0  0  0  0  0  0  0
    8.1270   12.6430   24.5730 C   0  0  0  0  0  0  0  0  0  0  0  0
    7.1970   11.7420   25.3650 C   0  0  0  0  0  0  0  0  0  0  0  0
    7.2500   10.4130   25.3290 N   0  0  0  0  0  0  0  0  0  0  0  0
    8.1780    9.8480   24.5360 C   0  0  0  0  0  0  0  0  0  0  0  0
    9.0930   10.4890   23.7470 C   0  0  0  0  0  0  0  0  0  0  0  0
   10.1910    9.3190   22.7880 Br  0  0  0  0  0  0  0  0  0  0  0  0
  1  2  2  0
  2  3  1  0
  3  4  1  0
  4  5  1  0
  4  6  1  0
  4  7  1  0
  2  8  1  0
  8  9  1  0
  9 10  2  0
 10 11  1  0
 11 12  2  0
 12 13  1  0
 13 14  2  0
 14 15  1  0
 14  9  1  0
A    1
 O1 
A    2
 C1 
A    3
 C2 
A    4
 C3 
A    5
 F1 
A    6
 F2 
A    7
 F3 
A    8
 N1 
A    9
 C4 
A   10
 C5 
A   11
 C6 
A   12
 N2 
A   13
 C7 
A   14
 C8 
A   15
BR1 
M  END
>  <similarity>  (49) 
1.0

>  <smiles>  (49) 
O=C(CC(F)(F)F)Nc1ccncc1Br

>  <cmpd_id>  (49) 
CHEMSPACE-BB:CSMB00013040888,ENAMINE:Z1524745957

>  <used_subnode>  (49) 
c1ccncc1

>  <used_synthon>  (49) 
O=C(CC(F)(F)F)N[Xe]

>  <ref_subnode>  (49) 
c1ccncc1

>  <ref_synthon>  (49) 
N#CCC(=O)N[Xe]

>  <fragmentA>  (49) 
x0416_0A

>  <fragmentB>  (49) 
x0310_0A

>  <HA>  (49) 
15

>  <HBD>  (49) 
1

>  <HBA>  (49) 
2

>  <MW>  (49) 
281.961559572

>  <TPSA>  (49) 
41.99

>  <LogP>  (49) 
2.735000000000001

>  <RBs>  (49) 
2

>  <G_bound>  (49) 
-3.3420247529407

>  <G_unbound>  (49) 
0.632206117646488

>  <deltaG>  (49) 
-3.974230870587188

>  <comRMSD>  (49) 
0.7651817139099254

>  <substructure_overlap_check>  (49) 
True

>  <energy_ratio_check>  (49) 
True

>  <const_energy/unconst_energy>  (49) 
2.914075817725527

>  <sucos>  (49) 
0.547722423191117

>  <interactions>  (49) 
HBDonor_SER-125,Hydrophobic_VAL-124,Hydrophobic_PRO-107,Hydrophobic_HIS-21

>  <total_num_ints>  (49) 
4

>  <total_num_ints_nonhyd>  (49) 
1

>  <num_uniq_frag_ints>  (49) 
2

>  <num_repl_uniq_ints>  (49) 
2

>  <num_uniq_ints_lost>  (49) 
0

>  <num_new_uniq_ints>  (49) 
2

>  <int_check>  (49) 
True

>  <tversky>  (49) 
0.2862522444053026

>  <mean_vol_overlap>  (49) 
0.5941385900232532

>  <rotat_bonds>  (49) 
2

>  <ref_url>  (49) 
https://pubs.acs.org/doi/10.1021/acs.jcim.3c00276?fig=tgr1&ref=pdf

>  <submitter_name>  (49) 
Steph Wills

>  <submitter_institution>  (49) 
University of Oxford

>  <submitter_email>  (49) 
stephanie.wills@balliol.ox.ac.uk

>  <generation_date>  (49) 
2023-11-27

>  <method>  (49) 
FragNetv2_pt2

>  <original SMILES>  (49) 
O=C(CC(F)(F)F)Nc1ccncc1Br

>  <original_name>  (49) 
x0416_0A-x0310_0A_179952_B1X

>  <ref_mols>  (49) 
x0416_0A,x0310_0A

>  <ref_pdb>  (49) 
x0310_0A

>  <rationale>  (49) 
FragNet: 1 round bioisosteric merging incl c1ccncc1 and O=C(CC(F)(F)F)N[Xe] replacing N#CCC(=O)N[Xe]

$$$$
x0416_0A-x0310_0A_119523_B1X
     RDKit          3D

 15 15  0  0  0  0  0  0  0  0999 V2000
   10.0160    8.3750   22.9970 C   0  0  0  0  0  0  0  0  0  0  0  0
   10.0820    9.6600   23.0370 C   0  0  0  0  0  0  0  0  0  0  0  0
    9.0750   10.3930   23.8050 C   0  0  0  0  0  0  0  0  0  0  0  0
    8.1220    9.6950   24.6280 N   0  0  0  0  0  0  0  0  0  0  0  0
    7.3080   10.5510   25.2500 C   0  0  0  0  0  0  0  0  0  0  0  0
    7.3120   12.0650   25.1450 C   0  0  0  0  0  0  0  0  0  0  0  0
    8.2460   12.6720   24.3300 C   0  0  0  0  0  0  0  0  0  0  0  0
    8.0730   14.1870   24.3560 C   0  0  0  0  0  0  0  0  0  0  0  0
    9.1770   11.8930   23.6190 C   0  0  0  0  0  0  0  0  0  0  0  0
   10.0960   12.4700   22.8240 N   0  0  0  0  0  0  0  0  0  0  0  0
   10.9100   13.3920   23.3450 C   0  0  0  0  0  0  0  0  0  0  0  0
   10.8640   13.6700   24.5350 O   0  0  0  0  0  0  0  0  0  0  0  0
   11.8630   14.1250   22.4600 C   0  0  0  0  0  0  0  0  0  0  0  0
   12.6570   15.1870   22.7890 C   0  0  0  0  0  0  0  0  0  0  0  0
   11.0630   14.4470   21.1560 C   0  0  0  0  0  0  0  0  0  0  0  0
  1  2  1  0
  2  3  1  0
  3  4  2  0
  4  5  1  0
  5  6  2  0
  6  7  1  0
  7  8  1  0
  7  9  2  0
  9 10  1  0
 10 11  1  0
 11 12  2  0
 11 13  1  0
 13 14  1  0
 13 15  1  0
  9  3  1  0
A    1
 C1 
A    2
 C2 
A    3
 C3 
A    4
 N1 
A    5
 C4 
A    6
 C5 
A    7
 C6 
A    8
 C7 
A    9
 C8 
A   10
 N2 
A   11
 C9 
A   12
 O1 
A   13
 C10
A   14
 C11
A   15
 C12
M  END
>  <similarity>  (50) 
1.0

>  <smiles>  (50) 
CCc1nccc(C)c1NC(=O)C(C)C

>  <cmpd_id>  (50) 
ENAMINE:Z3087662261

>  <used_subnode>  (50) 
c1ccncc1

>  <used_synthon>  (50) 
CC(C)C(=O)N[Xe]

>  <ref_subnode>  (50) 
c1ccncc1

>  <ref_synthon>  (50) 
N#CCC(=O)N[Xe]

>  <fragmentA>  (50) 
x0416_0A

>  <fragmentB>  (50) 
x0310_0A

>  <HA>  (50) 
15

>  <HBD>  (50) 
1

>  <HBA>  (50) 
2

>  <MW>  (50) 
206.141913196

>  <TPSA>  (50) 
41.99

>  <LogP>  (50) 
2.546920000000001

>  <RBs>  (50) 
3

>  <G_bound>  (50) 
-12.061173953090139

>  <G_unbound>  (50) 
-0.1983411880844692

>  <deltaG>  (50) 
-11.862832765005669

>  <comRMSD>  (50) 
0.4251313630055547

>  <substructure_overlap_check>  (50) 
True

>  <energy_ratio_check>  (50) 
True

>  <const_energy/unconst_energy>  (50) 
6.003967070546884

>  <sucos>  (50) 
0.5482684707340881

>  <interactions>  (50) 
HBDonor_SER-125,Hydrophobic_TYR-90,Hydrophobic_VAL-124,HBAcceptor_SER-105,Hydrophobic_TYR-89,Hydrophobic_ASP-109,Hydrophobic_PRO-107,Hydrophobic_HIS-21

>  <total_num_ints>  (50) 
8

>  <total_num_ints_nonhyd>  (50) 
2

>  <num_uniq_frag_ints>  (50) 
2

>  <num_repl_uniq_ints>  (50) 
2

>  <num_uniq_ints_lost>  (50) 
0

>  <num_new_uniq_ints>  (50) 
6

>  <int_check>  (50) 
True

>  <tversky>  (50) 
0.34666868365396647

>  <mean_vol_overlap>  (50) 
0.5904538003138468

>  <rotat_bonds>  (50) 
3

>  <ref_url>  (50) 
https://pubs.acs.org/doi/10.1021/acs.jcim.3c00276?fig=tgr1&ref=pdf

>  <submitter_name>  (50) 
Steph Wills

>  <submitter_institution>  (50) 
University of Oxford

>  <submitter_email>  (50) 
stephanie.wills@balliol.ox.ac.uk

>  <generation_date>  (50) 
2023-11-27

>  <method>  (50) 
FragNetv2_pt2

>  <original SMILES>  (50) 
CCc1nccc(C)c1NC(=O)C(C)C

>  <original_name>  (50) 
x0416_0A-x0310_0A_119523_B1X

>  <ref_mols>  (50) 
x0416_0A,x0310_0A

>  <ref_pdb>  (50) 
x0310_0A

>  <rationale>  (50) 
FragNet: 1 round bioisosteric merging incl c1ccncc1 and CC(C)C(=O)N[Xe] replacing N#CCC(=O)N[Xe]

$$$$
x0451_0A-x0416_0A_3385_PXX
     RDKit          3D

 18 20  0  0  0  0  0  0  0  0999 V2000
   11.2370    9.6770   22.5760 C   0  0  0  0  0  0  0  0  0  0  0  0
   10.1830   10.3020   23.2780 C   0  0  0  0  0  0  0  0  0  0  0  0
    9.9330   11.6070   23.5980 C   0  0  0  0  0  0  0  0  0  0  0  0
    8.7610   11.6580   24.3150 C   0  0  0  0  0  0  0  0  0  0  0  0
    8.0680   12.7090   24.8750 C   0  0  0  0  0  0  0  0  0  0  0  0
    6.8670   12.6430   25.5960 C   0  0  0  0  0  0  0  0  0  0  0  0
    6.2190   13.7130   26.1150 N   0  0  0  0  0  0  0  0  0  0  0  0
    4.9710   13.3540   26.5200 C   0  0  0  0  0  0  0  0  0  0  0  0
    4.0030   13.3860   25.7650 O   0  0  0  0  0  0  0  0  0  0  0  0
    4.8210   12.9730   27.8280 C   0  0  2  0  0  0  0  0  0  0  0  0
    5.9280   12.1390   28.4410 C   0  0  0  0  0  0  0  0  0  0  0  0
    5.2530   11.8180   29.7400 C   0  0  0  0  0  0  0  0  0  0  0  0
    3.7870   11.7990   29.3370 C   0  0  0  0  0  0  0  0  0  0  0  0
    3.7270   12.2160   27.9780 O   0  0  0  0  0  0  0  0  0  0  0  0
    6.3830   11.3210   25.7230 C   0  0  0  0  0  0  0  0  0  0  0  0
    7.0710   10.2290   25.1580 C   0  0  0  0  0  0  0  0  0  0  0  0
    8.2520   10.3720   24.4530 C   0  0  0  0  0  0  0  0  0  0  0  0
    9.1010    9.4940   23.8120 N   0  0  0  0  0  0  0  0  0  0  0  0
  1  2  1  0
  2  3  2  0
  3  4  1  0
  4  5  2  0
  5  6  1  0
  6  7  1  0
  7  8  1  0
  8  9  2  0
 10  8  1  6
 10 11  1  0
 11 12  1  0
 12 13  1  0
 13 14  1  0
  6 15  2  0
 15 16  1  0
 16 17  2  0
 17 18  1  0
 18  2  1  0
 17  4  1  0
 14 10  1  0
A    1
 C1 
A    2
 C2 
A    3
 C3 
A    4
 C4 
A    5
 C5 
A    6
 C6 
A    7
 N1 
A    8
 C7 
A    9
 O1 
A   10
 C8 
A   11
 C9 
A   12
 C10
A   13
 C11
A   14
 O2 
A   15
 C12
A   16
 C13
A   17
 C14
A   18
 N2 
M  END
>  <similarity>  (51) 
NA

>  <smiles>  (51) 
Cc1cc2cc(NC(=O)C3CCCO3)ccc2[nH]1

>  <cmpd_id>  (51) 
ENAMINE:Z372872896

>  <used_subnode>  (51) 
NA

>  <used_synthon>  (51) 
NA

>  <ref_subnode>  (51) 
c1ccc2[nH]ccc2c1

>  <ref_synthon>  (51) 
[Xe]C1CCCO1

>  <fragmentA>  (51) 
x0451_0A

>  <fragmentB>  (51) 
x0416_0A

>  <HA>  (51) 
18

>  <HBD>  (51) 
2

>  <HBA>  (51) 
2

>  <MW>  (51) 
244.121177752

>  <TPSA>  (51) 
54.12

>  <LogP>  (51) 
2.59382

>  <RBs>  (51) 
2

>  <G_bound>  (51) 
-7.386271685901533

>  <G_unbound>  (51) 
0.322944392605399

>  <deltaG>  (51) 
-7.709216078506932

>  <comRMSD>  (51) 
0.7169099982757133

>  <substructure_overlap_check>  (51) 
True

>  <energy_ratio_check>  (51) 
True

>  <const_energy/unconst_energy>  (51) 
2.492446168571836

>  <sucos>  (51) 
0.5486308789966559

>  <interactions>  (51) 
Hydrophobic_VAL-124,Hydrophobic_PRO-107,HBDonor_SER-105,Hydrophobic_CYS-110

>  <total_num_ints>  (51) 
4

>  <total_num_ints_nonhyd>  (51) 
1

>  <num_uniq_frag_ints>  (51) 
1

>  <num_repl_uniq_ints>  (51) 
1

>  <num_uniq_ints_lost>  (51) 
0

>  <num_new_uniq_ints>  (51) 
3

>  <int_check>  (51) 
True

>  <tversky>  (51) 
0.3613595056710572

>  <mean_vol_overlap>  (51) 
0.5760055570203942

>  <rotat_bonds>  (51) 
2

>  <ref_url>  (51) 
https://pubs.acs.org/doi/10.1021/acs.jcim.3c00276?fig=tgr1&ref=pdf

>  <submitter_name>  (51) 
Steph Wills

>  <submitter_institution>  (51) 
University of Oxford

>  <submitter_email>  (51) 
stephanie.wills@balliol.ox.ac.uk

>  <generation_date>  (51) 
2023-11-27

>  <method>  (51) 
FragNetv2_pt2

>  <original SMILES>  (51) 
Cc1cc2cc(NC(=O)C3CCCO3)ccc2[nH]1

>  <original_name>  (51) 
x0451_0A-x0416_0A_3385_PXX

>  <ref_mols>  (51) 
x0451_0A,x0416_0A

>  <ref_pdb>  (51) 
x0310_0A

>  <rationale>  (51) 
FragNet: perfect merge incl c1ccc2[nH]ccc2c1,[Xe]C1CCCO1

$$$$
x0416_0A-x0310_0A_191887_B1X
     RDKit          3D

 18 18  0  0  0  0  0  0  0  0999 V2000
    5.5230   11.3040   27.1150 C   0  0  0  0  0  0  0  0  0  0  0  0
    6.2090   12.2860   26.3510 O   0  0  0  0  0  0  0  0  0  0  0  0
    7.1490   11.7830   25.4880 C   0  0  0  0  0  0  0  0  0  0  0  0
    8.1120   12.5660   24.6010 C   0  0  0  0  0  0  0  0  0  0  0  0
    9.0310   11.9370   23.7660 C   0  0  0  0  0  0  0  0  0  0  0  0
    9.9230   12.5470   22.9610 N   0  0  0  0  0  0  0  0  0  0  0  0
   10.9110   13.2950   23.6320 C   0  0  0  0  0  0  0  0  0  0  0  0
   10.7040   13.7330   24.7550 O   0  0  0  0  0  0  0  0  0  0  0  0
   12.1990   13.5360   22.8840 C   0  0  0  0  0  0  0  0  0  0  0  0
   12.4630   14.8830   23.0340 C   0  0  0  0  0  0  0  0  0  0  0  0
   12.2810   15.6150   21.8990 C   0  0  0  0  0  0  0  0  0  0  0  0
   13.4350   15.6430   21.1910 F   0  0  0  0  0  0  0  0  0  0  0  0
   11.8990   16.8810   22.1560 F   0  0  0  0  0  0  0  0  0  0  0  0
   11.3220   15.0790   21.0850 F   0  0  0  0  0  0  0  0  0  0  0  0
    9.1250   10.4090   23.6900 C   0  0  0  0  0  0  0  0  0  0  0  0
   10.2220    9.2990   22.6790 Br  0  0  0  0  0  0  0  0  0  0  0  0
    8.2350    9.8110   24.5120 C   0  0  0  0  0  0  0  0  0  0  0  0
    7.3080   10.3310   25.3560 N   0  0  0  0  0  0  0  0  0  0  0  0
  1  2  1  0
  2  3  1  0
  3  4  2  0
  4  5  1  0
  5  6  1  0
  6  7  1  0
  7  8  2  0
  7  9  1  0
  9 10  1  0
 10 11  1  0
 11 12  1  0
 11 13  1  0
 11 14  1  0
  5 15  2  0
 15 16  1  0
 15 17  1  0
 17 18  2  0
 18  3  1  0
A    1
 C1 
A    2
 O1 
A    3
 C2 
A    4
 C3 
A    5
 C4 
A    6
 N1 
A    7
 C5 
A    8
 O2 
A    9
 C6 
A   10
 C7 
A   11
 C8 
A   12
 F1 
A   13
 F2 
A   14
 F3 
A   15
 C9 
A   16
BR1 
A   17
 C10
A   18
 N2 
M  END
>  <similarity>  (52) 
1.0

>  <smiles>  (52) 
COc1cc(NC(=O)CCC(F)(F)F)c(Br)cn1

>  <cmpd_id>  (52) 
ENAMINE:Z4469015011

>  <used_subnode>  (52) 
c1ccncc1

>  <used_synthon>  (52) 
O=C(CCC(F)(F)F)N[Xe]

>  <ref_subnode>  (52) 
c1ccncc1

>  <ref_synthon>  (52) 
N#CCC(=O)N[Xe]

>  <fragmentA>  (52) 
x0416_0A

>  <fragmentB>  (52) 
x0310_0A

>  <HA>  (52) 
18

>  <HBD>  (52) 
1

>  <HBA>  (52) 
3

>  <MW>  (52) 
325.98777432

>  <TPSA>  (52) 
51.22

>  <LogP>  (52) 
3.133700000000001

>  <RBs>  (52) 
4

>  <G_bound>  (52) 
-3.138600256498015

>  <G_unbound>  (52) 
0.6128004557850092

>  <deltaG>  (52) 
-3.7514007122830244

>  <comRMSD>  (52) 
0.8465114719110474

>  <substructure_overlap_check>  (52) 
True

>  <energy_ratio_check>  (52) 
True

>  <const_energy/unconst_energy>  (52) 
5.896131368654441

>  <sucos>  (52) 
0.5490768049598563

>  <interactions>  (52) 
HBDonor_SER-125,Hydrophobic_VAL-124,Hydrophobic_TYR-89,Hydrophobic_PRO-107,Hydrophobic_HIS-21

>  <total_num_ints>  (52) 
5

>  <total_num_ints_nonhyd>  (52) 
1

>  <num_uniq_frag_ints>  (52) 
2

>  <num_repl_uniq_ints>  (52) 
2

>  <num_uniq_ints_lost>  (52) 
0

>  <num_new_uniq_ints>  (52) 
3

>  <int_check>  (52) 
True

>  <tversky>  (52) 
0.30766913821541275

>  <mean_vol_overlap>  (52) 
0.5555268635553186

>  <rotat_bonds>  (52) 
4

>  <ref_url>  (52) 
https://pubs.acs.org/doi/10.1021/acs.jcim.3c00276?fig=tgr1&ref=pdf

>  <submitter_name>  (52) 
Steph Wills

>  <submitter_institution>  (52) 
University of Oxford

>  <submitter_email>  (52) 
stephanie.wills@balliol.ox.ac.uk

>  <generation_date>  (52) 
2023-11-27

>  <method>  (52) 
FragNetv2_pt2

>  <original SMILES>  (52) 
COc1cc(NC(=O)CCC(F)(F)F)c(Br)cn1

>  <original_name>  (52) 
x0416_0A-x0310_0A_191887_B1X

>  <ref_mols>  (52) 
x0416_0A,x0310_0A

>  <ref_pdb>  (52) 
x0310_0A

>  <rationale>  (52) 
FragNet: 1 round bioisosteric merging incl c1ccncc1 and O=C(CCC(F)(F)F)N[Xe] replacing N#CCC(=O)N[Xe]

$$$$
x0416_0A-x0310_0A_145584_B1X
     RDKit          3D

 16 16  0  0  0  0  0  0  0  0999 V2000
    9.9400    8.8440   22.3810 C   0  0  0  0  0  0  0  0  0  0  0  0
   10.2230   10.1380   22.9610 C   0  0  0  0  0  0  0  0  0  0  0  0
    9.2340   10.7240   23.6760 C   0  0  0  0  0  0  0  0  0  0  0  0
    8.4270    9.9500   24.4440 C   0  0  0  0  0  0  0  0  0  0  0  0
    7.4120   10.3410   25.2120 N   0  0  0  0  0  0  0  0  0  0  0  0
    7.1880   11.6960   25.2020 C   0  0  0  0  0  0  0  0  0  0  0  0
    6.0190   12.1900   26.0830 C   0  0  0  0  0  0  0  0  0  0  0  0
    7.9710   12.5530   24.4380 C   0  0  0  0  0  0  0  0  0  0  0  0
    9.0270   12.0890   23.6410 C   0  0  0  0  0  0  0  0  0  0  0  0
    9.8660   12.7960   22.8420 N   0  0  0  0  0  0  0  0  0  0  0  0
   10.9210   13.3520   23.4570 C   0  0  0  0  0  0  0  0  0  0  0  0
   11.0890   13.7650   24.8140 O   0  0  0  0  0  0  0  0  0  0  0  0
   12.1440   13.6290   22.5720 C   0  0  0  0  0  0  0  0  0  0  0  0
   12.4950   15.0080   22.1890 C   0  0  0  0  0  0  0  0  0  0  0  0
   13.6170   15.3740   21.3520 C   0  0  0  0  0  0  0  0  0  0  0  0
   11.7420   16.1330   22.6020 C   0  0  0  0  0  0  0  0  0  0  0  0
  1  2  1  0
  2  3  1  0
  3  4  2  0
  4  5  1  0
  5  6  2  0
  6  7  1  0
  6  8  1  0
  8  9  2  0
  9 10  1  0
 10 11  1  0
 11 12  2  0
 11 13  1  0
 13 14  2  3
 14 15  1  0
 14 16  1  0
  9  3  1  0
A    1
 C1 
A    2
 C2 
A    3
 C3 
A    4
 C4 
A    5
 N1 
A    6
 C5 
A    7
 C6 
A    8
 C7 
A    9
 C8 
A   10
 N2 
A   11
 C9 
A   12
 O1 
A   13
 C10
A   14
 C11
A   15
 C12
A   16
 C13
M  END
>  <similarity>  (53) 
1.0

>  <smiles>  (53) 
CCc1cnc(C)cc1NC(=O)C=C(C)C

>  <cmpd_id>  (53) 
ENAMINE:Z4202334192

>  <used_subnode>  (53) 
c1ccncc1

>  <used_synthon>  (53) 
CC(C)=CC(=O)N[Xe]

>  <ref_subnode>  (53) 
c1ccncc1

>  <ref_synthon>  (53) 
N#CCC(=O)N[Xe]

>  <fragmentA>  (53) 
x0416_0A

>  <fragmentB>  (53) 
x0310_0A

>  <HA>  (53) 
16

>  <HBD>  (53) 
1

>  <HBA>  (53) 
2

>  <MW>  (53) 
218.141913196

>  <TPSA>  (53) 
41.99

>  <LogP>  (53) 
2.857120000000001

>  <RBs>  (53) 
3

>  <G_bound>  (53) 
-7.616797243010097

>  <G_unbound>  (53) 
0.164503288006468

>  <deltaG>  (53) 
-7.781300531016566

>  <comRMSD>  (53) 
0.7050464224353826

>  <substructure_overlap_check>  (53) 
True

>  <energy_ratio_check>  (53) 
True

>  <const_energy/unconst_energy>  (53) 
5.584738747868854

>  <sucos>  (53) 
0.5491233290893489

>  <interactions>  (53) 
HBDonor_SER-125,Hydrophobic_TYR-90,Hydrophobic_VAL-124,Hydrophobic_TYR-89,Hydrophobic_PRO-107,Hydrophobic_HIS-21

>  <total_num_ints>  (53) 
6

>  <total_num_ints_nonhyd>  (53) 
1

>  <num_uniq_frag_ints>  (53) 
2

>  <num_repl_uniq_ints>  (53) 
2

>  <num_uniq_ints_lost>  (53) 
0

>  <num_new_uniq_ints>  (53) 
4

>  <int_check>  (53) 
True

>  <tversky>  (53) 
0.35335884967389514

>  <mean_vol_overlap>  (53) 
0.5752221862402193

>  <rotat_bonds>  (53) 
3

>  <ref_url>  (53) 
https://pubs.acs.org/doi/10.1021/acs.jcim.3c00276?fig=tgr1&ref=pdf

>  <submitter_name>  (53) 
Steph Wills

>  <submitter_institution>  (53) 
University of Oxford

>  <submitter_email>  (53) 
stephanie.wills@balliol.ox.ac.uk

>  <generation_date>  (53) 
2023-11-27

>  <method>  (53) 
FragNetv2_pt2

>  <original SMILES>  (53) 
CCc1cnc(C)cc1NC(=O)C=C(C)C

>  <original_name>  (53) 
x0416_0A-x0310_0A_145584_B1X

>  <ref_mols>  (53) 
x0416_0A,x0310_0A

>  <ref_pdb>  (53) 
x0310_0A

>  <rationale>  (53) 
FragNet: 1 round bioisosteric merging incl c1ccncc1 and CC(C)=CC(=O)N[Xe] replacing N#CCC(=O)N[Xe]

$$$$
x0416_0A-x0310_0A_67455_B1X
     RDKit          3D

 19 21  0  0  0  0  0  0  0  0999 V2000
    6.7460   14.5140   23.7820 O   0  0  0  0  0  0  0  0  0  0  0  0
    7.4460   14.2200   24.7370 C   0  0  0  0  0  0  0  0  0  0  0  0
    8.8310   14.2630   24.7510 N   0  0  0  0  0  0  0  0  0  0  0  0
    9.7650   13.3930   23.9700 C   0  0  0  0  0  0  0  0  0  0  0  0
    9.4270   11.9280   23.8940 C   0  0  0  0  0  0  0  0  0  0  0  0
   10.0030   10.9130   23.0590 C   0  0  0  0  0  0  0  0  0  0  0  0
    9.5060    9.5150   23.1810 C   0  0  0  0  0  0  0  0  0  0  0  0
    8.5530    9.1660   24.0250 N   0  0  0  0  0  0  0  0  0  0  0  0
    8.0410   10.1650   24.7850 C   0  0  0  0  0  0  0  0  0  0  0  0
    8.4360   11.5040   24.7480 C   0  0  0  0  0  0  0  0  0  0  0  0
   10.4950   13.9130   22.8580 C   0  0  0  0  0  0  0  0  0  0  0  0
   11.4040   13.8600   23.9640 C   0  0  0  0  0  0  0  0  0  0  0  0
    6.9860   13.8060   25.9530 O   0  0  0  0  0  0  0  0  0  0  0  0
    5.6010   13.4170   26.0270 C   0  0  0  0  0  0  0  0  0  0  0  0
    5.3030   12.1470   26.8390 C   0  0  1  0  0  0  0  0  0  0  0  0
    6.1810   12.0080   28.0860 C   0  0  0  0  0  0  0  0  0  0  0  0
    5.3310   12.4370   29.2810 C   0  0  0  0  0  0  0  0  0  0  0  0
    3.9480   12.6380   28.6780 C   0  0  0  0  0  0  0  0  0  0  0  0
    4.0200   12.1440   27.3180 O   0  0  0  0  0  0  0  0  0  0  0  0
  1  2  2  0
  2  3  1  0
  3  4  1  0
  4  5  1  0
  5  6  2  0
  6  7  1  0
  7  8  2  0
  8  9  1  0
  9 10  2  0
  4 11  1  0
 11 12  1  0
  2 13  1  0
 13 14  1  0
 15 14  1  1
 15 16  1  0
 16 17  1  0
 17 18  1  0
 18 19  1  0
 12  4  1  0
 19 15  1  0
 10  5  1  0
A    1
 O1 
A    2
 C1 
A    3
 N1 
A    4
 C2 
A    5
 C3 
A    6
 C4 
A    7
 C5 
A    8
 N2 
A    9
 C6 
A   10
 C7 
A   11
 C8 
A   12
 C9 
A   13
 O2 
A   14
 C10
A   15
 C11
A   16
 C12
A   17
 C13
A   18
 C14
A   19
 O3 
M  END
>  <similarity>  (54) 
1.0

>  <smiles>  (54) 
O=C(NC1(c2ccncc2)CC1)OCC1CCCO1

>  <cmpd_id>  (54) 
ENAMINE:Z4278068115

>  <used_subnode>  (54) 
C1CCOC1

>  <used_synthon>  (54) 
[Xe]c1ccncc1

>  <ref_subnode>  (54) 
C1CCOC1

>  <ref_synthon>  (54) 
[Xe]n1cccn1

>  <fragmentA>  (54) 
x0416_0A

>  <fragmentB>  (54) 
x0310_0A

>  <HA>  (54) 
19

>  <HBD>  (54) 
1

>  <HBA>  (54) 
4

>  <MW>  (54) 
262.131742436

>  <TPSA>  (54) 
60.45

>  <LogP>  (54) 
1.9759

>  <RBs>  (54) 
4

>  <G_bound>  (54) 
-3.9479196891173993

>  <G_unbound>  (54) 
2.1180553631658543

>  <deltaG>  (54) 
-6.065975052283253

>  <comRMSD>  (54) 
1.2151184169293694

>  <substructure_overlap_check>  (54) 
True

>  <energy_ratio_check>  (54) 
True

>  <const_energy/unconst_energy>  (54) 
1.4306080208821739

>  <sucos>  (54) 
0.5494812097330836

>  <interactions>  (54) 
Hydrophobic_VAL-124,HBAcceptor_SER-105,Hydrophobic_PRO-107

>  <total_num_ints>  (54) 
3

>  <total_num_ints_nonhyd>  (54) 
1

>  <num_uniq_frag_ints>  (54) 
2

>  <num_repl_uniq_ints>  (54) 
2

>  <num_uniq_ints_lost>  (54) 
0

>  <num_new_uniq_ints>  (54) 
1

>  <int_check>  (54) 
True

>  <tversky>  (54) 
0.29893136217462046

>  <mean_vol_overlap>  (54) 
0.5558193296895728

>  <rotat_bonds>  (54) 
4

>  <ref_url>  (54) 
https://pubs.acs.org/doi/10.1021/acs.jcim.3c00276?fig=tgr1&ref=pdf

>  <submitter_name>  (54) 
Steph Wills

>  <submitter_institution>  (54) 
University of Oxford

>  <submitter_email>  (54) 
stephanie.wills@balliol.ox.ac.uk

>  <generation_date>  (54) 
2023-11-27

>  <method>  (54) 
FragNetv2_pt2

>  <original SMILES>  (54) 
O=C(NC1(c2ccncc2)CC1)OCC1CCCO1

>  <original_name>  (54) 
x0416_0A-x0310_0A_67455_B1X

>  <ref_mols>  (54) 
x0416_0A,x0310_0A

>  <ref_pdb>  (54) 
x0310_0A

>  <rationale>  (54) 
FragNet: 1 round bioisosteric merging incl C1CCOC1 and [Xe]c1ccncc1 replacing [Xe]n1cccn1

$$$$
x0416_0A-x0310_0A_162252_B1X
     RDKit          3D

 17 18  0  0  0  0  0  0  0  0999 V2000
    8.1990   14.0990   24.6160 C   0  0  0  0  0  0  0  0  0  0  0  0
    8.1670   12.5790   24.5660 C   0  0  0  0  0  0  0  0  0  0  0  0
    7.2910   11.8140   25.5040 C   0  0  0  0  0  0  0  0  0  0  0  0
    7.3330   10.4660   25.3820 C   0  0  0  0  0  0  0  0  0  0  0  0
    8.0600    9.7350   24.5200 N   0  0  0  0  0  0  0  0  0  0  0  0
    8.9040   10.3710   23.6010 C   0  0  0  0  0  0  0  0  0  0  0  0
    9.6470    9.6410   22.7050 C   0  0  0  0  0  0  0  0  0  0  0  0
    9.5130    8.3450   22.7650 C   0  0  0  0  0  0  0  0  0  0  0  0
   10.8420    9.5490   23.4090 C   0  0  0  0  0  0  0  0  0  0  0  0
    8.9830   11.7550   23.5970 C   0  0  0  0  0  0  0  0  0  0  0  0
    9.7520   12.4260   22.7730 N   0  0  0  0  0  0  0  0  0  0  0  0
   10.7580   13.0880   23.3670 C   0  0  0  0  0  0  0  0  0  0  0  0
   10.7990   13.5280   24.7240 O   0  0  0  0  0  0  0  0  0  0  0  0
   11.8510   13.3470   22.4170 C   0  0  0  0  0  0  0  0  0  0  0  0
   12.5100   14.6300   22.4110 C   0  0  0  0  0  0  0  0  0  0  0  0
   12.4260   15.7200   23.0540 C   0  0  0  0  0  0  0  0  0  0  0  0
   13.5270   15.4820   21.8320 C   0  0  0  0  0  0  0  0  0  0  0  0
  1  2  1  0
  2  3  2  0
  3  4  1  0
  4  5  2  0
  5  6  1  0
  6  7  1  0
  7  8  1  0
  7  9  1  0
  6 10  2  0
 10 11  1  0
 11 12  1  0
 12 13  2  0
 12 14  1  0
 14 15  2  3
 15 16  1  0
 16 17  1  0
 10  2  1  0
 17 15  1  0
A    1
 C1 
A    2
 C2 
A    3
 C3 
A    4
 C4 
A    5
 N1 
A    6
 C5 
A    7
 C6 
A    8
 C7 
A    9
 C8 
A   10
 C9 
A   11
 N2 
A   12
 C10
A   13
 O1 
A   14
 C11
A   15
 C12
A   16
 C13
A   17
 C14
M  END
>  <similarity>  (55) 
1.0

>  <smiles>  (55) 
Cc1ccnc(C(C)C)c1NC(=O)C=C1CC1

>  <cmpd_id>  (55) 
ENAMINE:Z4340027981

>  <used_subnode>  (55) 
c1ccncc1

>  <used_synthon>  (55) 
O=C(C=C1CC1)N[Xe]

>  <ref_subnode>  (55) 
c1ccncc1

>  <ref_synthon>  (55) 
N#CCC(=O)N[Xe]

>  <fragmentA>  (55) 
x0416_0A

>  <fragmentB>  (55) 
x0310_0A

>  <HA>  (55) 
17

>  <HBD>  (55) 
1

>  <HBA>  (55) 
2

>  <MW>  (55) 
230.141913196

>  <TPSA>  (55) 
41.99

>  <LogP>  (55) 
3.1721200000000014

>  <RBs>  (55) 
3

>  <G_bound>  (55) 
-3.6744770230783637

>  <G_unbound>  (55) 
0.254138952907144

>  <deltaG>  (55) 
-3.9286159759855077

>  <comRMSD>  (55) 
0.5448450430316821

>  <substructure_overlap_check>  (55) 
True

>  <energy_ratio_check>  (55) 
True

>  <const_energy/unconst_energy>  (55) 
3.428906016430882

>  <sucos>  (55) 
0.5505498060007458

>  <interactions>  (55) 
Hydrophobic_CYS-110,HBDonor_SER-125,Hydrophobic_TYR-90,Hydrophobic_VAL-124,HBAcceptor_SER-105,Hydrophobic_TYR-89,Hydrophobic_PRO-107,Hydrophobic_HIS-21

>  <total_num_ints>  (55) 
8

>  <total_num_ints_nonhyd>  (55) 
2

>  <num_uniq_frag_ints>  (55) 
2

>  <num_repl_uniq_ints>  (55) 
2

>  <num_uniq_ints_lost>  (55) 
0

>  <num_new_uniq_ints>  (55) 
6

>  <int_check>  (55) 
True

>  <tversky>  (55) 
0.3172249315094366

>  <mean_vol_overlap>  (55) 
0.554189129106238

>  <rotat_bonds>  (55) 
3

>  <ref_url>  (55) 
https://pubs.acs.org/doi/10.1021/acs.jcim.3c00276?fig=tgr1&ref=pdf

>  <submitter_name>  (55) 
Steph Wills

>  <submitter_institution>  (55) 
University of Oxford

>  <submitter_email>  (55) 
stephanie.wills@balliol.ox.ac.uk

>  <generation_date>  (55) 
2023-11-27

>  <method>  (55) 
FragNetv2_pt2

>  <original SMILES>  (55) 
Cc1ccnc(C(C)C)c1NC(=O)C=C1CC1

>  <original_name>  (55) 
x0416_0A-x0310_0A_162252_B1X

>  <ref_mols>  (55) 
x0416_0A,x0310_0A

>  <ref_pdb>  (55) 
x0310_0A

>  <rationale>  (55) 
FragNet: 1 round bioisosteric merging incl c1ccncc1 and O=C(C=C1CC1)N[Xe] replacing N#CCC(=O)N[Xe]

$$$$
x0416_0A-x0310_0A_24382_B1X
     RDKit          3D

 18 19  0  0  0  0  0  0  0  0999 V2000
   12.5040   14.0350   22.7670 C   0  0  0  0  0  0  0  0  0  0  0  0
   11.1510   13.6180   23.3140 C   0  0  0  0  0  0  0  0  0  0  0  0
   10.8880   13.9240   24.6890 O   0  0  0  0  0  0  0  0  0  0  0  0
   10.2800   12.9900   22.5160 N   0  0  0  0  0  0  0  0  0  0  0  0
    9.6970   11.9690   23.1190 C   0  0  0  0  0  0  0  0  0  0  0  0
   10.0840   10.5580   22.7790 C   0  0  0  0  0  0  0  0  0  0  0  0
    9.3980    9.4450   23.4940 C   0  0  0  0  0  0  0  0  0  0  0  0
    8.3430    9.8330   24.5120 C   0  0  0  0  0  0  0  0  0  0  0  0
    8.0760   11.1700   24.7320 C   0  0  0  0  0  0  0  0  0  0  0  0
    7.0030   11.3930   25.7700 C   0  0  0  0  0  0  0  0  0  0  0  0
    6.5890   10.4150   26.6230 N   0  0  0  0  0  0  0  0  0  0  0  0
    5.4420   10.6510   27.2360 C   0  0  0  0  0  0  0  0  0  0  0  0
    4.9750   12.0690   27.1870 C   0  0  2  0  0  0  0  0  0  0  0  0
    5.9640   12.7230   28.1350 C   0  0  0  0  0  0  0  0  0  0  0  0
    5.1770   12.6500   29.4500 C   0  0  0  0  0  0  0  0  0  0  0  0
    3.7100   12.5130   29.0590 C   0  0  0  0  0  0  0  0  0  0  0  0
    3.6840   12.1460   27.6750 O   0  0  0  0  0  0  0  0  0  0  0  0
    8.7200   12.2190   24.0720 C   0  0  0  0  0  0  0  0  0  0  0  0
  1  2  1  0
  2  3  2  0
  2  4  1  0
  4  5  1  0
  5  6  2  0
  6  7  1  0
  7  8  2  0
  8  9  1  0
  9 10  1  0
 10 11  1  0
 11 12  1  0
 13 12  1  1
 13 14  1  0
 14 15  1  0
 15 16  1  0
 16 17  1  0
  9 18  2  0
 18  5  1  0
 17 13  1  0
A    1
 C1 
A    2
 C2 
A    3
 O1 
A    4
 N1 
A    5
 C3 
A    6
 C4 
A    7
 C5 
A    8
 C6 
A    9
 C7 
A   10
 C8 
A   11
 N2 
A   12
 C9 
A   13
 C10
A   14
 C11
A   15
 C12
A   16
 C13
A   17
 O2 
A   18
 C14
M  END
>  <similarity>  (56) 
1.0

>  <smiles>  (56) 
CC(=O)Nc1cccc(CNCC2CCCO2)c1

>  <cmpd_id>  (56) 
ENAMINE:Z2769309033,ENAMINE:Z2769913645,ENAMINE:Z2770008752

>  <used_subnode>  (56) 
C1CCOC1

>  <used_synthon>  (56) 
CC(=O)N[Xe]

>  <ref_subnode>  (56) 
C1CCOC1

>  <ref_synthon>  (56) 
N#CCC(=O)N[Xe]

>  <fragmentA>  (56) 
x0416_0A

>  <fragmentB>  (56) 
x0310_0A

>  <HA>  (56) 
18

>  <HBD>  (56) 
2

>  <HBA>  (56) 
3

>  <MW>  (56) 
248.15247788

>  <TPSA>  (56) 
50.36

>  <LogP>  (56) 
1.9135999999999997

>  <RBs>  (56) 
5

>  <G_bound>  (56) 
-7.762782926768423

>  <G_unbound>  (56) 
0.5579009848831754

>  <deltaG>  (56) 
-8.3206839116516

>  <comRMSD>  (56) 
1.066289467550943

>  <substructure_overlap_check>  (56) 
True

>  <energy_ratio_check>  (56) 
True

>  <const_energy/unconst_energy>  (56) 
6.8267986647472485

>  <sucos>  (56) 
0.5524874636163931

>  <interactions>  (56) 
HBDonor_SER-125,Hydrophobic_VAL-124,HBDonor_SER-105,Hydrophobic_PRO-107,Hydrophobic_HIS-21

>  <total_num_ints>  (56) 
5

>  <total_num_ints_nonhyd>  (56) 
2

>  <num_uniq_frag_ints>  (56) 
2

>  <num_repl_uniq_ints>  (56) 
2

>  <num_uniq_ints_lost>  (56) 
0

>  <num_new_uniq_ints>  (56) 
3

>  <int_check>  (56) 
True

>  <tversky>  (56) 
0.3170645899545089

>  <mean_vol_overlap>  (56) 
0.5634590993113366

>  <rotat_bonds>  (56) 
5

>  <ref_url>  (56) 
https://pubs.acs.org/doi/10.1021/acs.jcim.3c00276?fig=tgr1&ref=pdf

>  <submitter_name>  (56) 
Steph Wills

>  <submitter_institution>  (56) 
University of Oxford

>  <submitter_email>  (56) 
stephanie.wills@balliol.ox.ac.uk

>  <generation_date>  (56) 
2023-11-27

>  <method>  (56) 
FragNetv2_pt2

>  <original SMILES>  (56) 
CC(=O)Nc1cccc(CNCC2CCCO2)c1

>  <original_name>  (56) 
x0416_0A-x0310_0A_24382_B1X

>  <ref_mols>  (56) 
x0416_0A,x0310_0A

>  <ref_pdb>  (56) 
x0310_0A

>  <rationale>  (56) 
FragNet: 1 round bioisosteric merging incl C1CCOC1 and CC(=O)N[Xe] replacing N#CCC(=O)N[Xe]

$$$$
x0416_0A-x0310_0A_20050_B1X
     RDKit          3D

 19 20  0  0  0  0  0  0  0  0999 V2000
   12.3050   13.9490   22.9140 C   0  0  0  0  0  0  0  0  0  0  0  0
   10.9900   13.5030   23.4800 C   0  0  0  0  0  0  0  0  0  0  0  0
   10.6880   13.7350   24.6470 O   0  0  0  0  0  0  0  0  0  0  0  0
   10.1650   12.8390   22.6510 N   0  0  0  0  0  0  0  0  0  0  0  0
    9.7080   11.6750   23.1040 C   0  0  0  0  0  0  0  0  0  0  0  0
   10.1540   10.4740   22.6790 C   0  0  0  0  0  0  0  0  0  0  0  0
    9.6610    9.3200   23.1570 C   0  0  0  0  0  0  0  0  0  0  0  0
    8.6710    9.2920   24.0970 C   0  0  0  0  0  0  0  0  0  0  0  0
    8.1330   10.4430   24.6090 C   0  0  0  0  0  0  0  0  0  0  0  0
    7.1660   10.3400   25.5190 N   0  0  0  0  0  0  0  0  0  0  0  0
    6.8310   11.3550   26.3450 C   0  0  0  0  0  0  0  0  0  0  0  0
    7.0840   12.5380   26.1570 O   0  0  0  0  0  0  0  0  0  0  0  0
    6.0930   10.9090   27.5980 C   0  0  0  0  0  0  0  0  0  0  0  0
    5.6420   12.2140   28.2330 C   0  0  2  0  0  0  0  0  0  0  0  0
    4.9530   12.4370   29.4040 C   0  0  0  0  0  0  0  0  0  0  0  0
    3.5010   12.4290   28.9760 C   0  0  0  0  0  0  0  0  0  0  0  0
    3.4330   12.4600   27.5500 O   0  0  0  0  0  0  0  0  0  0  0  0
    4.7440   12.8400   27.1430 C   0  0  0  0  0  0  0  0  0  0  0  0
    8.5790   11.6760   24.1860 C   0  0  0  0  0  0  0  0  0  0  0  0
  1  2  1  0
  2  3  2  0
  2  4  1  0
  4  5  1  0
  5  6  2  0
  6  7  1  0
  7  8  2  0
  8  9  1  0
  9 10  1  0
 10 11  1  0
 11 12  2  0
 11 13  1  0
 14 13  1  6
 14 15  1  0
 15 16  1  0
 16 17  1  0
 17 18  1  0
  9 19  2  0
 19  5  1  0
 18 14  1  0
A    1
 C1 
A    2
 C2 
A    3
 O1 
A    4
 N1 
A    5
 C3 
A    6
 C4 
A    7
 C5 
A    8
 C6 
A    9
 C7 
A   10
 N2 
A   11
 C8 
A   12
 O2 
A   13
 C9 
A   14
 C10
A   15
 C11
A   16
 C12
A   17
 O3 
A   18
 C13
A   19
 C14
M  END
>  <similarity>  (57) 
1.0

>  <smiles>  (57) 
CC(=O)Nc1cccc(NC(=O)CC2CCOC2)c1

>  <cmpd_id>  (57) 
ENAMINE:Z1245843740,ENAMINE:Z1848513988

>  <used_subnode>  (57) 
C1CCOC1

>  <used_synthon>  (57) 
CC(=O)N[Xe]

>  <ref_subnode>  (57) 
C1CCOC1

>  <ref_synthon>  (57) 
N#CCC(=O)N[Xe]

>  <fragmentA>  (57) 
x0416_0A

>  <fragmentB>  (57) 
x0310_0A

>  <HA>  (57) 
19

>  <HBD>  (57) 
2

>  <HBA>  (57) 
3

>  <MW>  (57) 
262.131742436

>  <TPSA>  (57) 
67.43

>  <LogP>  (57) 
2.0100999999999996

>  <RBs>  (57) 
4

>  <G_bound>  (57) 
-7.416972871810458

>  <G_unbound>  (57) 
0.5273615299890552

>  <deltaG>  (57) 
-7.944334401799513

>  <comRMSD>  (57) 
0.6247370412251361

>  <substructure_overlap_check>  (57) 
True

>  <energy_ratio_check>  (57) 
True

>  <const_energy/unconst_energy>  (57) 
4.760515140726215

>  <sucos>  (57) 
0.555126779915184

>  <interactions>  (57) 
HBDonor_SER-125,Hydrophobic_VAL-124,HBDonor_SER-105,Hydrophobic_PRO-107,Hydrophobic_HIS-21

>  <total_num_ints>  (57) 
5

>  <total_num_ints_nonhyd>  (57) 
2

>  <num_uniq_frag_ints>  (57) 
2

>  <num_repl_uniq_ints>  (57) 
2

>  <num_uniq_ints_lost>  (57) 
0

>  <num_new_uniq_ints>  (57) 
3

>  <int_check>  (57) 
True

>  <tversky>  (57) 
0.3005953388931636

>  <mean_vol_overlap>  (57) 
0.5771331046198579

>  <rotat_bonds>  (57) 
4

>  <ref_url>  (57) 
https://pubs.acs.org/doi/10.1021/acs.jcim.3c00276?fig=tgr1&ref=pdf

>  <submitter_name>  (57) 
Steph Wills

>  <submitter_institution>  (57) 
University of Oxford

>  <submitter_email>  (57) 
stephanie.wills@balliol.ox.ac.uk

>  <generation_date>  (57) 
2023-11-27

>  <method>  (57) 
FragNetv2_pt2

>  <original SMILES>  (57) 
CC(=O)Nc1cccc(NC(=O)CC2CCOC2)c1

>  <original_name>  (57) 
x0416_0A-x0310_0A_20050_B1X

>  <ref_mols>  (57) 
x0416_0A,x0310_0A

>  <ref_pdb>  (57) 
x0310_0A

>  <rationale>  (57) 
FragNet: 1 round bioisosteric merging incl C1CCOC1 and CC(=O)N[Xe] replacing N#CCC(=O)N[Xe]

$$$$
x0416_0A-x0310_0A_21692_B1X
     RDKit          3D

 19 20  0  0  0  0  0  0  0  0999 V2000
   12.1330   13.8440   22.8130 C   0  0  0  0  0  0  0  0  0  0  0  0
   11.0480   12.9530   23.4000 C   0  0  0  0  0  0  0  0  0  0  0  0
   10.4220   13.2380   24.4140 O   0  0  0  0  0  0  0  0  0  0  0  0
   10.8130   11.7920   22.7260 N   0  0  0  0  0  0  0  0  0  0  0  0
    9.9230   10.9100   23.2070 C   0  0  0  0  0  0  0  0  0  0  0  0
    8.6650   11.3490   23.8860 C   0  0  0  0  0  0  0  0  0  0  0  0
    8.0030   11.7980   24.6820 N   0  0  0  0  0  0  0  0  0  0  0  0
    7.7990   13.1680   24.6540 C   0  0  0  0  0  0  0  0  0  0  0  0
    7.3180   10.9260   25.4460 C   0  0  0  0  0  0  0  0  0  0  0  0
    7.2180    9.7340   25.2600 O   0  0  0  0  0  0  0  0  0  0  0  0
    6.7770   11.6080   26.5040 C   0  0  0  0  0  0  0  0  0  0  0  0
    5.5410   12.3270   26.1300 C   0  0  0  0  0  0  0  0  0  0  0  0
    4.9210   12.9840   27.2760 C   0  0  2  0  0  0  0  0  0  0  0  0
    5.8640   12.6880   28.4570 C   0  0  0  0  0  0  0  0  0  0  0  0
    4.9480   12.4710   29.6490 C   0  0  0  0  0  0  0  0  0  0  0  0
    3.5500   12.3640   29.0810 C   0  0  0  0  0  0  0  0  0  0  0  0
    3.7110   12.2940   27.6510 O   0  0  0  0  0  0  0  0  0  0  0  0
    9.8230    9.7040   22.4430 C   0  0  0  0  0  0  0  0  0  0  0  0
   10.4530    9.4640   23.5840 C   0  0  0  0  0  0  0  0  0  0  0  0
  1  2  1  0
  2  3  2  0
  2  4  1  0
  4  5  1  0
  5  6  1  0
  6  7  1  0
  7  8  1  0
  7  9  1  0
  9 10  2  0
  9 11  1  0
 11 12  1  0
 13 12  1  6
 13 14  1  0
 14 15  1  0
 15 16  1  0
 16 17  1  0
  5 18  1  0
 18 19  1  0
 19  5  1  0
 17 13  1  0
A    1
 C1 
A    2
 C2 
A    3
 O1 
A    4
 N1 
A    5
 C3 
A    6
 C4 
A    7
 N2 
A    8
 C5 
A    9
 C6 
A   10
 O2 
A   11
 C7 
A   12
 C8 
A   13
 C9 
A   14
 C10
A   15
 C11
A   16
 C12
A   17
 O3 
A   18
 C13
A   19
 C14
M  END
>  <similarity>  (58) 
1.0

>  <smiles>  (58) 
CC(=O)NC1(CN(C)C(=O)CCC2CCCO2)CC1

>  <cmpd_id>  (58) 
ENAMINE:PV-003154376564

>  <used_subnode>  (58) 
C1CCOC1

>  <used_synthon>  (58) 
CC(=O)N[Xe]

>  <ref_subnode>  (58) 
C1CCOC1

>  <ref_synthon>  (58) 
N#CCC(=O)N[Xe]

>  <fragmentA>  (58) 
x0416_0A

>  <fragmentB>  (58) 
x0310_0A

>  <HA>  (58) 
19

>  <HBD>  (58) 
1

>  <HBA>  (58) 
3

>  <MW>  (58) 
268.178692628

>  <TPSA>  (58) 
58.64

>  <LogP>  (58) 
1.0726999999999995

>  <RBs>  (58) 
6

>  <G_bound>  (58) 
-3.6027260582250134

>  <G_unbound>  (58) 
1.2639009965045935

>  <deltaG>  (58) 
-4.866627054729607

>  <comRMSD>  (58) 
0.8426766583887391

>  <substructure_overlap_check>  (58) 
True

>  <energy_ratio_check>  (58) 
True

>  <const_energy/unconst_energy>  (58) 
3.8128937964235114

>  <sucos>  (58) 
0.5561322004471919

>  <interactions>  (58) 
HBDonor_SER-125,Hydrophobic_VAL-124,Hydrophobic_PRO-107,Hydrophobic_HIS-21

>  <total_num_ints>  (58) 
4

>  <total_num_ints_nonhyd>  (58) 
1

>  <num_uniq_frag_ints>  (58) 
2

>  <num_repl_uniq_ints>  (58) 
2

>  <num_uniq_ints_lost>  (58) 
0

>  <num_new_uniq_ints>  (58) 
2

>  <int_check>  (58) 
True

>  <tversky>  (58) 
0.29202137309639387

>  <mean_vol_overlap>  (58) 
0.5842408889188547

>  <rotat_bonds>  (58) 
6

>  <ref_url>  (58) 
https://pubs.acs.org/doi/10.1021/acs.jcim.3c00276?fig=tgr1&ref=pdf

>  <submitter_name>  (58) 
Steph Wills

>  <submitter_institution>  (58) 
University of Oxford

>  <submitter_email>  (58) 
stephanie.wills@balliol.ox.ac.uk

>  <generation_date>  (58) 
2023-11-27

>  <method>  (58) 
FragNetv2_pt2

>  <original SMILES>  (58) 
CC(=O)NC1(CN(C)C(=O)CCC2CCCO2)CC1

>  <original_name>  (58) 
x0416_0A-x0310_0A_21692_B1X

>  <ref_mols>  (58) 
x0416_0A,x0310_0A

>  <ref_pdb>  (58) 
x0310_0A

>  <rationale>  (58) 
FragNet: 1 round bioisosteric merging incl C1CCOC1 and CC(=O)N[Xe] replacing N#CCC(=O)N[Xe]

$$$$
x0416_0A-x0310_0A_180615_B1X
     RDKit          3D

 16 16  0  0  0  0  0  0  0  0999 V2000
   11.5020   14.7940   22.0590 C   0  0  0  0  0  0  0  0  0  0  0  0
   11.3820   13.4400   22.7850 C   0  0  1  0  0  0  0  0  0  0  0  0
   11.7840   13.7280   24.2030 C   0  0  0  0  0  0  0  0  0  0  0  0
   10.6700   13.8350   24.9290 F   0  0  0  0  0  0  0  0  0  0  0  0
   10.1850   12.7620   22.5210 N   0  0  0  0  0  0  0  0  0  0  0  0
    9.2780   12.1280   23.4590 C   0  0  0  0  0  0  0  0  0  0  0  0
    8.2940   12.8290   24.3620 C   0  0  0  0  0  0  0  0  0  0  0  0
    7.4460   12.1480   25.2280 C   0  0  0  0  0  0  0  0  0  0  0  0
    6.5450   12.8170   26.0500 C   0  0  0  0  0  0  0  0  0  0  0  0
    6.0950   13.9680   25.5050 F   0  0  0  0  0  0  0  0  0  0  0  0
    7.0830   13.1160   27.2540 F   0  0  0  0  0  0  0  0  0  0  0  0
    5.4290   12.0800   26.3230 F   0  0  0  0  0  0  0  0  0  0  0  0
    7.4050   10.7510   25.3660 N   0  0  0  0  0  0  0  0  0  0  0  0
    8.2920   10.1540   24.5460 C   0  0  0  0  0  0  0  0  0  0  0  0
    9.1710   10.7390   23.6530 C   0  0  0  0  0  0  0  0  0  0  0  0
   10.1650    9.4310   22.7490 Br  0  0  0  0  0  0  0  0  0  0  0  0
  2  1  1  6
  2  3  1  0
  3  4  1  0
  2  5  1  0
  5  6  1  0
  6  7  2  0
  7  8  1  0
  8  9  1  0
  9 10  1  0
  9 11  1  0
  9 12  1  0
  8 13  2  0
 13 14  1  0
 14 15  2  0
 15 16  1  0
 15  6  1  0
A    1
 C1 
A    2
 C2 
A    3
 C3 
A    4
 F1 
A    5
 N1 
A    6
 C4 
A    7
 C5 
A    8
 C6 
A    9
 C7 
A   10
 F2 
A   11
 F3 
A   12
 F4 
A   13
 N2 
A   14
 C8 
A   15
 C9 
A   16
BR1 
M  END
>  <similarity>  (59) 
1.0

>  <smiles>  (59) 
CC(CF)Nc1cc(C(F)(F)F)ncc1Br

>  <cmpd_id>  (59) 
ENAMINE:PV-002908770769

>  <used_subnode>  (59) 
c1ccncc1

>  <used_synthon>  (59) 
CC(CF)N[Xe]

>  <ref_subnode>  (59) 
c1ccncc1

>  <ref_synthon>  (59) 
N#CCC(=O)N[Xe]

>  <fragmentA>  (59) 
x0416_0A

>  <fragmentB>  (59) 
x0310_0A

>  <HA>  (59) 
16

>  <HBD>  (59) 
1

>  <HBA>  (59) 
2

>  <MW>  (59) 
299.988523268

>  <TPSA>  (59) 
24.92

>  <LogP>  (59) 
3.6328000000000014

>  <RBs>  (59) 
3

>  <G_bound>  (59) 
-4.173205878036717

>  <G_unbound>  (59) 
0.40434143269836403

>  <deltaG>  (59) 
-4.577547310735081

>  <comRMSD>  (59) 
1.1804010032714423

>  <substructure_overlap_check>  (59) 
True

>  <energy_ratio_check>  (59) 
True

>  <const_energy/unconst_energy>  (59) 
4.708007130917519

>  <sucos>  (59) 
0.5573110039035845

>  <interactions>  (59) 
HBDonor_SER-125,Hydrophobic_TYR-90,Hydrophobic_VAL-124,Hydrophobic_PRO-107,Hydrophobic_HIS-21

>  <total_num_ints>  (59) 
5

>  <total_num_ints_nonhyd>  (59) 
1

>  <num_uniq_frag_ints>  (59) 
2

>  <num_repl_uniq_ints>  (59) 
2

>  <num_uniq_ints_lost>  (59) 
0

>  <num_new_uniq_ints>  (59) 
3

>  <int_check>  (59) 
True

>  <tversky>  (59) 
0.17481632083838408

>  <mean_vol_overlap>  (59) 
0.6047926626697211

>  <rotat_bonds>  (59) 
3

>  <ref_url>  (59) 
https://pubs.acs.org/doi/10.1021/acs.jcim.3c00276?fig=tgr1&ref=pdf

>  <submitter_name>  (59) 
Steph Wills

>  <submitter_institution>  (59) 
University of Oxford

>  <submitter_email>  (59) 
stephanie.wills@balliol.ox.ac.uk

>  <generation_date>  (59) 
2023-11-27

>  <method>  (59) 
FragNetv2_pt2

>  <original SMILES>  (59) 
CC(CF)Nc1cc(C(F)(F)F)ncc1Br

>  <original_name>  (59) 
x0416_0A-x0310_0A_180615_B1X

>  <ref_mols>  (59) 
x0416_0A,x0310_0A

>  <ref_pdb>  (59) 
x0310_0A

>  <rationale>  (59) 
FragNet: 1 round bioisosteric merging incl c1ccncc1 and CC(CF)N[Xe] replacing N#CCC(=O)N[Xe]

$$$$
x0416_0A-x0310_0A_154120_B1X
     RDKit          3D

 17 17  0  0  0  0  0  0  0  0999 V2000
    6.1580   10.3430   26.2240 C   0  0  0  0  0  0  0  0  0  0  0  0
    7.3080   10.7200   25.2790 C   0  0  0  0  0  0  0  0  0  0  0  0
    7.5270   12.2160   25.1920 C   0  0  0  0  0  0  0  0  0  0  0  0
    8.5270   12.6610   24.3920 C   0  0  0  0  0  0  0  0  0  0  0  0
    9.3250   11.6720   23.6660 C   0  0  0  0  0  0  0  0  0  0  0  0
   10.3040   12.2230   22.9240 N   0  0  0  0  0  0  0  0  0  0  0  0
   11.1360   13.1540   23.5140 C   0  0  0  0  0  0  0  0  0  0  0  0
   10.7620   13.6880   24.5570 O   0  0  0  0  0  0  0  0  0  0  0  0
   12.3430   13.5260   23.0130 C   0  0  0  0  0  0  0  0  0  0  0  0
   12.5400   15.1680   23.4230 S   0  0  0  0  0  0  0  0  0  0  0  0
   12.0970   15.7660   21.9180 C   0  0  0  0  0  0  0  0  0  0  0  0
   10.9510   15.2000   21.4600 F   0  0  0  0  0  0  0  0  0  0  0  0
   13.0650   15.4940   21.0230 F   0  0  0  0  0  0  0  0  0  0  0  0
   11.8990   17.0890   21.9430 F   0  0  0  0  0  0  0  0  0  0  0  0
    9.0710   10.3160   23.7750 C   0  0  0  0  0  0  0  0  0  0  0  0
    9.9140    9.3050   22.9870 C   0  0  0  0  0  0  0  0  0  0  0  0
    8.0520    9.8140   24.5900 N   0  0  0  0  0  0  0  0  0  0  0  0
  1  2  1  0
  2  3  2  0
  3  4  1  0
  4  5  2  0
  5  6  1  0
  6  7  1  0
  7  8  2  0
  7  9  1  0
  9 10  1  0
 10 11  1  0
 11 12  1  0
 11 13  1  0
 11 14  1  0
  5 15  1  0
 15 16  1  0
 15 17  2  0
 17  2  1  0
A    1
 C1 
A    2
 C2 
A    3
 C3 
A    4
 C4 
A    5
 C5 
A    6
 N1 
A    7
 C6 
A    8
 O1 
A    9
 C7 
A   10
 S1 
A   11
 C8 
A   12
 F1 
A   13
 F2 
A   14
 F3 
A   15
 C9 
A   16
 C10
A   17
 N2 
M  END
>  <similarity>  (60) 
1.0

>  <smiles>  (60) 
Cc1ccc(NC(=O)CSC(F)(F)F)c(C)n1

>  <cmpd_id>  (60) 
ENAMINE:Z1391782799

>  <used_subnode>  (60) 
c1ccncc1

>  <used_synthon>  (60) 
O=C(CSC(F)(F)F)N[Xe]

>  <ref_subnode>  (60) 
c1ccncc1

>  <ref_synthon>  (60) 
N#CCC(=O)N[Xe]

>  <fragmentA>  (60) 
x0416_0A

>  <fragmentB>  (60) 
x0310_0A

>  <HA>  (60) 
17

>  <HBD>  (60) 
1

>  <HBA>  (60) 
3

>  <MW>  (60) 
264.054418632

>  <TPSA>  (60) 
41.99

>  <LogP>  (60) 
2.889940000000001

>  <RBs>  (60) 
3

>  <G_bound>  (60) 
-7.376832492245994

>  <G_unbound>  (60) 
1.9019448671303387

>  <deltaG>  (60) 
-9.278777359376333

>  <comRMSD>  (60) 
0.5378192335209196

>  <substructure_overlap_check>  (60) 
True

>  <energy_ratio_check>  (60) 
True

>  <const_energy/unconst_energy>  (60) 
4.384742156679435

>  <sucos>  (60) 
0.5580659475592041

>  <interactions>  (60) 
HBDonor_SER-125,Hydrophobic_VAL-124,Hydrophobic_TYR-89,Hydrophobic_PRO-107,Hydrophobic_HIS-21

>  <total_num_ints>  (60) 
5

>  <total_num_ints_nonhyd>  (60) 
1

>  <num_uniq_frag_ints>  (60) 
2

>  <num_repl_uniq_ints>  (60) 
2

>  <num_uniq_ints_lost>  (60) 
0

>  <num_new_uniq_ints>  (60) 
3

>  <int_check>  (60) 
True

>  <tversky>  (60) 
0.3461962154162484

>  <mean_vol_overlap>  (60) 
0.5554317589321965

>  <rotat_bonds>  (60) 
3

>  <ref_url>  (60) 
https://pubs.acs.org/doi/10.1021/acs.jcim.3c00276?fig=tgr1&ref=pdf

>  <submitter_name>  (60) 
Steph Wills

>  <submitter_institution>  (60) 
University of Oxford

>  <submitter_email>  (60) 
stephanie.wills@balliol.ox.ac.uk

>  <generation_date>  (60) 
2023-11-27

>  <method>  (60) 
FragNetv2_pt2

>  <original SMILES>  (60) 
Cc1ccc(NC(=O)CSC(F)(F)F)c(C)n1

>  <original_name>  (60) 
x0416_0A-x0310_0A_154120_B1X

>  <ref_mols>  (60) 
x0416_0A,x0310_0A

>  <ref_pdb>  (60) 
x0310_0A

>  <rationale>  (60) 
FragNet: 1 round bioisosteric merging incl c1ccncc1 and O=C(CSC(F)(F)F)N[Xe] replacing N#CCC(=O)N[Xe]

$$$$
x0310_0A-x0416_0A_24915_PXX
     RDKit          3D

 21 23  0  0  0  0  0  0  0  0999 V2000
   11.9930   16.2430   22.5930 N   0  0  0  0  0  0  0  0  0  0  0  0
   12.9640   15.1800   22.4860 C   0  0  0  0  0  0  0  0  0  0  0  0
   12.2790   13.9390   21.9740 C   0  0  0  0  0  0  0  0  0  0  0  0
   11.2920   13.4780   23.0290 C   0  0  0  0  0  0  0  0  0  0  0  0
   11.3160   14.1820   24.2860 O   0  0  0  0  0  0  0  0  0  0  0  0
   10.4360   12.4030   22.6900 N   0  0  0  0  0  0  0  0  0  0  0  0
    9.7760   11.8780   23.7470 C   0  0  1  0  0  0  0  0  0  0  0  0
    8.3970   12.3640   23.7550 C   0  0  0  0  0  0  0  0  0  0  0  0
    7.4890   11.7860   24.6270 N   0  0  0  0  0  0  0  0  0  0  0  0
    7.0100   12.5370   25.6150 C   0  0  0  0  0  0  0  0  0  0  0  0
    7.6360   13.4710   26.1130 O   0  0  0  0  0  0  0  0  0  0  0  0
    5.7510   12.1920   26.0320 C   0  0  0  0  0  0  0  0  0  0  0  0
    5.2320   12.6360   27.2540 C   0  0  2  0  0  0  0  0  0  0  0  0
    6.1260   12.0520   28.3500 C   0  0  0  0  0  0  0  0  0  0  0  0
    5.2030   12.1630   29.5470 C   0  0  0  0  0  0  0  0  0  0  0  0
    3.8420   12.3290   28.8690 C   0  0  0  0  0  0  0  0  0  0  0  0
    4.1040   12.1930   27.4570 O   0  0  0  0  0  0  0  0  0  0  0  0
    7.6560   10.5020   24.9000 C   0  0  0  0  0  0  0  0  0  0  0  0
    8.6400    9.6370   24.0930 C   0  0  1  0  0  0  0  0  0  0  0  0
    9.4410    9.8250   22.7600 C   0  0  0  0  0  0  0  0  0  0  0  0
    9.9070   10.4390   23.6720 C   0  0  1  0  0  0  0  0  0  0  0  0
  1  2  3  0
  2  3  1  0
  3  4  1  0
  4  5  2  0
  4  6  1  0
  7  6  1  6
  7  8  1  0
  8  9  1  0
  9 10  1  0
 10 11  2  0
 10 12  1  0
 13 12  1  6
 13 14  1  0
 14 15  1  0
 15 16  1  0
 16 17  1  0
  9 18  1  0
 19 18  1  6
 19 20  1  0
 21 20  1  6
 21  7  1  0
 17 13  1  0
 21 19  1  0
A    1
 N1 
A    2
 C1 
A    3
 C2 
A    4
 C3 
A    5
 O1 
A    6
 N2 
A    7
 C4 
A    8
 C5 
A    9
 N3 
A   10
 C6 
A   11
 O2 
A   12
 C7 
A   13
 C8 
A   14
 C9 
A   15
 C10
A   16
 C11
A   17
 O3 
A   18
 C12
A   19
 C13
A   20
 C14
A   21
 C15
M  END
>  <similarity>  (61) 
NA

>  <smiles>  (61) 
N#CCC(=O)NC1CN(C(=O)CC2CCCO2)CC2CC21

>  <cmpd_id>  (61) 
ENAMINE:PV-003427757232

>  <used_subnode>  (61) 
NA

>  <used_synthon>  (61) 
NA

>  <ref_subnode>  (61) 
N#CCC(N)=O

>  <ref_synthon>  (61) 
[Xe]C1CCCO1

>  <fragmentA>  (61) 
x0310_0A

>  <fragmentB>  (61) 
x0416_0A

>  <HA>  (61) 
21

>  <HBD>  (61) 
1

>  <HBA>  (61) 
4

>  <MW>  (61) 
291.158291532

>  <TPSA>  (61) 
82.43

>  <LogP>  (61) 
0.4322799999999998

>  <RBs>  (61) 
4

>  <G_bound>  (61) 
0.21671231920006812

>  <G_unbound>  (61) 
0.9535421062238147

>  <deltaG>  (61) 
-0.7368297870237466

>  <comRMSD>  (61) 
0.6028188581482847

>  <substructure_overlap_check>  (61) 
True

>  <energy_ratio_check>  (61) 
True

>  <const_energy/unconst_energy>  (61) 
2.5444318467138594

>  <sucos>  (61) 
0.5602467200823118

>  <interactions>  (61) 
Hydrophobic_VAL-124,Hydrophobic_PRO-107,HBDonor_SER-125,Hydrophobic_HIS-21

>  <total_num_ints>  (61) 
4

>  <total_num_ints_nonhyd>  (61) 
1

>  <num_uniq_frag_ints>  (61) 
2

>  <num_repl_uniq_ints>  (61) 
2

>  <num_uniq_ints_lost>  (61) 
0

>  <num_new_uniq_ints>  (61) 
2

>  <int_check>  (61) 
True

>  <tversky>  (61) 
0.3193577191174134

>  <mean_vol_overlap>  (61) 
0.5654659988583447

>  <rotat_bonds>  (61) 
4

>  <ref_url>  (61) 
https://pubs.acs.org/doi/10.1021/acs.jcim.3c00276?fig=tgr1&ref=pdf

>  <submitter_name>  (61) 
Steph Wills

>  <submitter_institution>  (61) 
University of Oxford

>  <submitter_email>  (61) 
stephanie.wills@balliol.ox.ac.uk

>  <generation_date>  (61) 
2023-11-27

>  <method>  (61) 
FragNetv2_pt2

>  <original SMILES>  (61) 
N#CCC(=O)NC1CN(C(=O)CC2CCCO2)CC2CC21

>  <original_name>  (61) 
x0310_0A-x0416_0A_24915_PXX

>  <ref_mols>  (61) 
x0310_0A,x0416_0A

>  <ref_pdb>  (61) 
x0310_0A

>  <rationale>  (61) 
FragNet: perfect merge incl N#CCC(N)=O,[Xe]C1CCCO1

$$$$
x0416_0A-x0310_0A_22608_B1X
     RDKit          3D

 20 22  0  0  0  0  0  0  0  0999 V2000
   12.3650   15.3380   22.6770 C   0  0  0  0  0  0  0  0  0  0  0  0
   12.0640   13.8660   22.4990 C   0  0  0  0  0  0  0  0  0  0  0  0
   10.8930   13.4130   23.3210 C   0  0  0  0  0  0  0  0  0  0  0  0
   10.8890   13.9510   24.6540 O   0  0  0  0  0  0  0  0  0  0  0  0
    9.9750   12.5750   22.7970 N   0  0  0  0  0  0  0  0  0  0  0  0
    9.3290   11.8390   23.7130 C   0  0  1  0  0  0  0  0  0  0  0  0
    7.9460   12.2400   24.2120 C   0  0  0  0  0  0  0  0  0  0  0  0
    7.3960   11.0740   24.6380 N   0  0  0  0  0  0  0  0  0  0  0  0
    6.4600   10.9590   25.7450 C   0  0  0  0  0  0  0  0  0  0  0  0
    5.5740   10.1280   25.8270 O   0  0  0  0  0  0  0  0  0  0  0  0
    6.6840   11.9000   26.7830 C   0  0  0  0  0  0  0  0  0  0  0  0
    5.4400   12.7580   27.0240 C   0  0  2  0  0  0  0  0  0  0  0  0
    5.7500   13.3270   28.3800 C   0  0  0  0  0  0  0  0  0  0  0  0
    4.7720   12.8110   29.3310 C   0  0  0  0  0  0  0  0  0  0  0  0
    3.8040   12.1170   28.7400 C   0  0  0  0  0  0  0  0  0  0  0  0
    4.2130   12.0020   27.3290 O   0  0  0  0  0  0  0  0  0  0  0  0
    8.3740   10.1900   24.4930 C   0  0  0  0  0  0  0  0  0  0  0  0
    9.1870   10.3790   23.1790 C   0  0  0  0  0  0  0  0  0  0  0  0
   10.0240    9.3710   23.6360 C   0  0  0  0  0  0  0  0  0  0  0  0
    9.8750    9.3280   22.1660 C   0  0  0  0  0  0  0  0  0  0  0  0
  1  2  1  0
  2  3  1  0
  3  4  2  0
  3  5  1  0
  6  5  1  6
  6  7  1  0
  7  8  1  0
  8  9  1  0
  9 10  2  0
  9 11  1  0
 12 11  1  1
 12 13  1  0
 13 14  1  0
 14 15  1  0
 15 16  1  0
  8 17  1  0
 17 18  1  0
 18 19  1  0
 19 20  1  0
 18  6  1  0
 16 12  1  0
 20 18  1  0
A    1
 C1 
A    2
 C2 
A    3
 C3 
A    4
 O1 
A    5
 N1 
A    6
 C4 
A    7
 C5 
A    8
 N2 
A    9
 C6 
A   10
 O2 
A   11
 C7 
A   12
 C8 
A   13
 C9 
A   14
 C10
A   15
 C11
A   16
 O3 
A   17
 C12
A   18
 C13
A   19
 C14
A   20
 C15
M  END
>  <similarity>  (62) 
1.0

>  <smiles>  (62) 
CCC(=O)NC1CN(C(=O)CC2CCCO2)CC12CC2

>  <cmpd_id>  (62) 
ENAMINE:PV-003549995097

>  <used_subnode>  (62) 
C1CCOC1

>  <used_synthon>  (62) 
CCC(=O)N[Xe]

>  <ref_subnode>  (62) 
C1CCOC1

>  <ref_synthon>  (62) 
N#CCC(=O)N[Xe]

>  <fragmentA>  (62) 
x0416_0A

>  <fragmentB>  (62) 
x0310_0A

>  <HA>  (62) 
20

>  <HBD>  (62) 
1

>  <HBA>  (62) 
3

>  <MW>  (62) 
280.178692628

>  <TPSA>  (62) 
58.64

>  <LogP>  (62) 
1.0726999999999995

>  <RBs>  (62) 
4

>  <G_bound>  (62) 
-3.3663260774613786

>  <G_unbound>  (62) 
0.7780049517930508

>  <deltaG>  (62) 
-4.144331029254429

>  <comRMSD>  (62) 
0.7526082622065408

>  <substructure_overlap_check>  (62) 
True

>  <energy_ratio_check>  (62) 
True

>  <const_energy/unconst_energy>  (62) 
2.190262772625508

>  <sucos>  (62) 
0.5602736909500363

>  <interactions>  (62) 
HBDonor_SER-125,Hydrophobic_TYR-90,Hydrophobic_VAL-124,Hydrophobic_TYR-89,Hydrophobic_PRO-107,Hydrophobic_HIS-21

>  <total_num_ints>  (62) 
6

>  <total_num_ints_nonhyd>  (62) 
1

>  <num_uniq_frag_ints>  (62) 
2

>  <num_repl_uniq_ints>  (62) 
2

>  <num_uniq_ints_lost>  (62) 
0

>  <num_new_uniq_ints>  (62) 
4

>  <int_check>  (62) 
True

>  <tversky>  (62) 
0.29986569024941634

>  <mean_vol_overlap>  (62) 
0.5719012772074794

>  <rotat_bonds>  (62) 
4

>  <ref_url>  (62) 
https://pubs.acs.org/doi/10.1021/acs.jcim.3c00276?fig=tgr1&ref=pdf

>  <submitter_name>  (62) 
Steph Wills

>  <submitter_institution>  (62) 
University of Oxford

>  <submitter_email>  (62) 
stephanie.wills@balliol.ox.ac.uk

>  <generation_date>  (62) 
2023-11-27

>  <method>  (62) 
FragNetv2_pt2

>  <original SMILES>  (62) 
CCC(=O)NC1CN(C(=O)CC2CCCO2)CC12CC2

>  <original_name>  (62) 
x0416_0A-x0310_0A_22608_B1X

>  <ref_mols>  (62) 
x0416_0A,x0310_0A

>  <ref_pdb>  (62) 
x0310_0A

>  <rationale>  (62) 
FragNet: 1 round bioisosteric merging incl C1CCOC1 and CCC(=O)N[Xe] replacing N#CCC(=O)N[Xe]

$$$$
x0416_0A-x0310_0A_154631_B1X
     RDKit          3D

 17 17  0  0  0  0  0  0  0  0999 V2000
    6.2430   12.1970   26.1430 C   0  0  0  0  0  0  0  0  0  0  0  0
    7.2940   11.5330   25.2620 C   0  0  0  0  0  0  0  0  0  0  0  0
    8.2000   12.4540   24.4690 C   0  0  0  0  0  0  0  0  0  0  0  0
    9.2170   11.7430   23.6130 C   0  0  0  0  0  0  0  0  0  0  0  0
   10.0800   12.5160   22.8750 N   0  0  0  0  0  0  0  0  0  0  0  0
   11.0360   13.3070   23.5070 C   0  0  0  0  0  0  0  0  0  0  0  0
   10.7980   13.7280   24.6330 O   0  0  0  0  0  0  0  0  0  0  0  0
   12.2360   13.6420   22.9190 C   0  0  0  0  0  0  0  0  0  0  0  0
   12.4180   14.9930   23.1350 C   0  0  0  0  0  0  0  0  0  0  0  0
   12.2300   15.6250   21.9340 C   0  0  0  0  0  0  0  0  0  0  0  0
   13.3480   15.5500   21.1920 F   0  0  0  0  0  0  0  0  0  0  0  0
   11.9100   16.9170   22.0870 F   0  0  0  0  0  0  0  0  0  0  0  0
   11.2230   15.0430   21.2270 F   0  0  0  0  0  0  0  0  0  0  0  0
    9.2680   10.3510   23.5910 C   0  0  0  0  0  0  0  0  0  0  0  0
   10.1600    9.5550   22.8290 C   0  0  0  0  0  0  0  0  0  0  0  0
    8.3710    9.6740   24.3770 C   0  0  0  0  0  0  0  0  0  0  0  0
    7.3950   10.2100   25.2060 N   0  0  0  0  0  0  0  0  0  0  0  0
  1  2  1  0
  2  3  2  0
  3  4  1  0
  4  5  1  0
  5  6  1  0
  6  7  2  0
  6  8  1  0
  8  9  1  0
  9 10  1  0
 10 11  1  0
 10 12  1  0
 10 13  1  0
  4 14  2  0
 14 15  1  0
 14 16  1  0
 16 17  2  0
 17  2  1  0
A    1
 C1 
A    2
 C2 
A    3
 C3 
A    4
 C4 
A    5
 N1 
A    6
 C5 
A    7
 O1 
A    8
 C6 
A    9
 C7 
A   10
 C8 
A   11
 F1 
A   12
 F2 
A   13
 F3 
A   14
 C9 
A   15
 C10
A   16
 C11
A   17
 N2 
M  END
>  <similarity>  (63) 
1.0

>  <smiles>  (63) 
Cc1cc(NC(=O)CCC(F)(F)F)c(C)cn1

>  <cmpd_id>  (63) 
ENAMINE:Z1481821592

>  <used_subnode>  (63) 
c1ccncc1

>  <used_synthon>  (63) 
O=C(CCC(F)(F)F)N[Xe]

>  <ref_subnode>  (63) 
c1ccncc1

>  <ref_synthon>  (63) 
N#CCC(=O)N[Xe]

>  <fragmentA>  (63) 
x0416_0A

>  <fragmentB>  (63) 
x0310_0A

>  <HA>  (63) 
17

>  <HBD>  (63) 
1

>  <HBA>  (63) 
2

>  <MW>  (63) 
246.097997696

>  <TPSA>  (63) 
41.99

>  <LogP>  (63) 
2.979440000000001

>  <RBs>  (63) 
3

>  <G_bound>  (63) 
-7.164673794634763

>  <G_unbound>  (63) 
0.42538563013629066

>  <deltaG>  (63) 
-7.590059424771054

>  <comRMSD>  (63) 
0.8131476099382918

>  <substructure_overlap_check>  (63) 
True

>  <energy_ratio_check>  (63) 
True

>  <const_energy/unconst_energy>  (63) 
4.662246741486877

>  <sucos>  (63) 
0.5613483747752197

>  <interactions>  (63) 
HBDonor_SER-125,Hydrophobic_VAL-124,Hydrophobic_TYR-89,Hydrophobic_PRO-107,Hydrophobic_HIS-21

>  <total_num_ints>  (63) 
5

>  <total_num_ints_nonhyd>  (63) 
1

>  <num_uniq_frag_ints>  (63) 
2

>  <num_repl_uniq_ints>  (63) 
2

>  <num_uniq_ints_lost>  (63) 
0

>  <num_new_uniq_ints>  (63) 
3

>  <int_check>  (63) 
True

>  <tversky>  (63) 
0.38414156911661895

>  <mean_vol_overlap>  (63) 
0.5712019471779618

>  <rotat_bonds>  (63) 
3

>  <ref_url>  (63) 
https://pubs.acs.org/doi/10.1021/acs.jcim.3c00276?fig=tgr1&ref=pdf

>  <submitter_name>  (63) 
Steph Wills

>  <submitter_institution>  (63) 
University of Oxford

>  <submitter_email>  (63) 
stephanie.wills@balliol.ox.ac.uk

>  <generation_date>  (63) 
2023-11-27

>  <method>  (63) 
FragNetv2_pt2

>  <original SMILES>  (63) 
Cc1cc(NC(=O)CCC(F)(F)F)c(C)cn1

>  <original_name>  (63) 
x0416_0A-x0310_0A_154631_B1X

>  <ref_mols>  (63) 
x0416_0A,x0310_0A

>  <ref_pdb>  (63) 
x0310_0A

>  <rationale>  (63) 
FragNet: 1 round bioisosteric merging incl c1ccncc1 and O=C(CCC(F)(F)F)N[Xe] replacing N#CCC(=O)N[Xe]

$$$$
x0416_0A-x0310_0A_18752_B1X
     RDKit          3D

 20 22  0  0  0  0  0  0  0  0999 V2000
   10.9190   13.4380   24.6340 O   0  0  0  0  0  0  0  0  0  0  0  0
   10.8150   13.2280   23.4350 C   0  0  0  0  0  0  0  0  0  0  0  0
   10.0430   12.1380   22.8480 N   0  0  0  0  0  0  0  0  0  0  0  0
    9.5220   11.0650   23.6170 C   0  0  0  0  0  0  0  0  0  0  0  0
    8.3420   11.1850   24.6170 C   0  0  0  0  0  0  0  0  0  0  0  0
    7.6390    9.9450   25.0400 C   0  0  0  0  0  0  0  0  0  0  0  0
    6.3980   10.2920   26.1180 S   0  0  0  0  0  0  0  0  0  0  0  0
    6.7690   11.9540   26.0340 C   0  0  0  0  0  0  0  0  0  0  0  0
    5.8940   12.8480   26.9110 C   0  0  2  0  0  0  0  0  0  0  0  0
    6.4060   12.5210   28.3140 C   0  0  0  0  0  0  0  0  0  0  0  0
    5.1920   12.7660   29.2030 C   0  0  0  0  0  0  0  0  0  0  0  0
    4.0100   12.5140   28.2490 C   0  0  0  0  0  0  0  0  0  0  0  0
    4.5380   12.3420   26.9320 O   0  0  0  0  0  0  0  0  0  0  0  0
    7.8140   12.3120   25.2060 N   0  0  0  0  0  0  0  0  0  0  0  0
    9.4360   10.0830   22.8250 C   0  0  0  0  0  0  0  0  0  0  0  0
   10.2820    9.5160   23.6530 C   0  0  0  0  0  0  0  0  0  0  0  0
   11.4300   14.0540   22.5030 C   0  0  0  0  0  0  0  0  0  0  0  0
   12.3730   13.4400   21.7760 F   0  0  0  0  0  0  0  0  0  0  0  0
   12.0630   15.0940   23.0920 F   0  0  0  0  0  0  0  0  0  0  0  0
   10.5420   14.5840   21.6310 F   0  0  0  0  0  0  0  0  0  0  0  0
  1  2  2  0
  2  3  1  0
  3  4  1  0
  4  5  1  0
  5  6  2  0
  6  7  1  0
  7  8  1  0
  9  8  1  6
  9 10  1  0
 10 11  1  0
 11 12  1  0
 12 13  1  0
  8 14  2  0
  4 15  1  0
 15 16  1  0
  2 17  1  0
 17 18  1  0
 17 19  1  0
 17 20  1  0
 16  4  1  0
 14  5  1  0
 13  9  1  0
A    1
 O1 
A    2
 C1 
A    3
 N1 
A    4
 C2 
A    5
 C3 
A    6
 C4 
A    7
 S1 
A    8
 C5 
A    9
 C6 
A   10
 C7 
A   11
 C8 
A   12
 C9 
A   13
 O2 
A   14
 N2 
A   15
 C10
A   16
 C11
A   17
 C12
A   18
 F1 
A   19
 F2 
A   20
 F3 
M  END
>  <similarity>  (64) 
1.0

>  <smiles>  (64) 
O=C(NC1(c2csc(C3CCCO3)n2)CC1)C(F)(F)F

>  <cmpd_id>  (64) 
ENAMINE:Z3292183597

>  <used_subnode>  (64) 
C1CCOC1

>  <used_synthon>  (64) 
O=C(N[Xe])C(F)(F)F

>  <ref_subnode>  (64) 
C1CCOC1

>  <ref_synthon>  (64) 
N#CCC(=O)N[Xe]

>  <fragmentA>  (64) 
x0416_0A

>  <fragmentB>  (64) 
x0310_0A

>  <HA>  (64) 
20

>  <HBD>  (64) 
1

>  <HBA>  (64) 
4

>  <MW>  (64) 
306.06498331600005

>  <TPSA>  (64) 
51.22

>  <LogP>  (64) 
2.6622000000000012

>  <RBs>  (64) 
3

>  <G_bound>  (64) 
-1.257707045904438

>  <G_unbound>  (64) 
0.8677380044228845

>  <deltaG>  (64) 
-2.1254450503273223

>  <comRMSD>  (64) 
0.5391067637277589

>  <substructure_overlap_check>  (64) 
True

>  <energy_ratio_check>  (64) 
True

>  <const_energy/unconst_energy>  (64) 
1.5435217842289457

>  <sucos>  (64) 
0.5617720928337304

>  <interactions>  (64) 
HBDonor_SER-125,Hydrophobic_VAL-124,Hydrophobic_PRO-107

>  <total_num_ints>  (64) 
3

>  <total_num_ints_nonhyd>  (64) 
1

>  <num_uniq_frag_ints>  (64) 
2

>  <num_repl_uniq_ints>  (64) 
2

>  <num_uniq_ints_lost>  (64) 
0

>  <num_new_uniq_ints>  (64) 
1

>  <int_check>  (64) 
True

>  <tversky>  (64) 
0.2625869963537005

>  <mean_vol_overlap>  (64) 
0.557443023255102

>  <rotat_bonds>  (64) 
3

>  <ref_url>  (64) 
https://pubs.acs.org/doi/10.1021/acs.jcim.3c00276?fig=tgr1&ref=pdf

>  <submitter_name>  (64) 
Steph Wills

>  <submitter_institution>  (64) 
University of Oxford

>  <submitter_email>  (64) 
stephanie.wills@balliol.ox.ac.uk

>  <generation_date>  (64) 
2023-11-27

>  <method>  (64) 
FragNetv2_pt2

>  <original SMILES>  (64) 
O=C(NC1(c2csc(C3CCCO3)n2)CC1)C(F)(F)F

>  <original_name>  (64) 
x0416_0A-x0310_0A_18752_B1X

>  <ref_mols>  (64) 
x0416_0A,x0310_0A

>  <ref_pdb>  (64) 
x0310_0A

>  <rationale>  (64) 
FragNet: 1 round bioisosteric merging incl C1CCOC1 and O=C(N[Xe])C(F)(F)F replacing N#CCC(=O)N[Xe]

$$$$
x0416_0A-x0310_0A_20338_B1X
     RDKit          3D

 21 23  0  0  0  0  0  0  0  0999 V2000
   12.3660   15.5190   22.1930 C   0  0  0  0  0  0  0  0  0  0  0  0
   12.6390   14.1030   22.6170 C   0  0  0  0  0  0  0  0  0  0  0  0
   11.4310   13.5200   23.3050 C   0  0  0  0  0  0  0  0  0  0  0  0
   11.1420   13.8480   24.4520 O   0  0  0  0  0  0  0  0  0  0  0  0
   10.7310   12.5960   22.4780 N   0  0  0  0  0  0  0  0  0  0  0  0
    9.9860   11.6220   23.0460 C   0  0  0  0  0  0  0  0  0  0  0  0
   10.1450   10.1340   22.8060 C   0  0  0  0  0  0  0  0  0  0  0  0
    9.2900    9.1360   23.5030 C   0  0  0  0  0  0  0  0  0  0  0  0
    8.3170    9.7770   24.3850 C   0  0  0  0  0  0  0  0  0  0  0  0
    8.2050   11.1440   24.5500 C   0  0  0  0  0  0  0  0  0  0  0  0
    7.1460   11.6160   25.4560 C   0  0  0  0  0  0  0  0  0  0  0  0
    6.8030   13.0460   25.4180 N   0  0  0  0  0  0  0  0  0  0  0  0
    5.7820   13.1590   26.3630 O   0  0  0  0  0  0  0  0  0  0  0  0
    5.6170   11.8940   26.8420 C   0  0  0  0  0  0  0  0  0  0  0  0
    4.6600   11.4140   27.8840 C   0  0  1  0  0  0  0  0  0  0  0  0
    5.4010   11.4950   29.1940 C   0  0  0  0  0  0  0  0  0  0  0  0
    5.1200   12.9130   29.5940 C   0  0  0  0  0  0  0  0  0  0  0  0
    3.6640   13.0160   29.1900 C   0  0  0  0  0  0  0  0  0  0  0  0
    3.5210   12.2590   27.9820 O   0  0  0  0  0  0  0  0  0  0  0  0
    6.4720   10.9330   26.2750 N   0  0  0  0  0  0  0  0  0  0  0  0
    9.0160   12.0380   23.9080 C   0  0  0  0  0  0  0  0  0  0  0  0
  1  2  1  0
  2  3  1  0
  3  4  2  0
  3  5  1  0
  5  6  1  0
  6  7  2  0
  7  8  1  0
  8  9  2  0
  9 10  1  0
 10 11  1  0
 11 12  2  0
 12 13  1  0
 13 14  1  0
 15 14  1  6
 15 16  1  0
 16 17  1  0
 17 18  1  0
 18 19  1  0
 14 20  2  0
 10 21  2  0
 21  6  1  0
 20 11  1  0
 19 15  1  0
A    1
 C1 
A    2
 C2 
A    3
 C3 
A    4
 O1 
A    5
 N1 
A    6
 C4 
A    7
 C5 
A    8
 C6 
A    9
 C7 
A   10
 C8 
A   11
 C9 
A   12
 N2 
A   13
 O2 
A   14
 C10
A   15
 C11
A   16
 C12
A   17
 C13
A   18
 C14
A   19
 O3 
A   20
 N3 
A   21
 C15
M  END
>  <similarity>  (65) 
1.0

>  <smiles>  (65) 
CCC(=O)Nc1cccc(-c2noc(C3CCCO3)n2)c1

>  <cmpd_id>  (65) 
ENAMINE:Z1022599558

>  <used_subnode>  (65) 
C1CCOC1

>  <used_synthon>  (65) 
CCC(=O)N[Xe]

>  <ref_subnode>  (65) 
C1CCOC1

>  <ref_synthon>  (65) 
N#CCC(=O)N[Xe]

>  <fragmentA>  (65) 
x0416_0A

>  <fragmentB>  (65) 
x0310_0A

>  <HA>  (65) 
21

>  <HBD>  (65) 
1

>  <HBA>  (65) 
5

>  <MW>  (65) 
287.126991404

>  <TPSA>  (65) 
77.25

>  <LogP>  (65) 
2.936600000000001

>  <RBs>  (65) 
4

>  <G_bound>  (65) 
-8.306977200030857

>  <G_unbound>  (65) 
0.7473240639813149

>  <deltaG>  (65) 
-9.054301264012173

>  <comRMSD>  (65) 
1.015404114689474

>  <substructure_overlap_check>  (65) 
True

>  <energy_ratio_check>  (65) 
True

>  <const_energy/unconst_energy>  (65) 
2.239948284802316

>  <sucos>  (65) 
0.5650025421439068

>  <interactions>  (65) 
HBDonor_SER-125,Hydrophobic_TYR-90,Hydrophobic_VAL-124,Hydrophobic_TYR-89,Hydrophobic_PRO-107,Hydrophobic_HIS-21

>  <total_num_ints>  (65) 
6

>  <total_num_ints_nonhyd>  (65) 
1

>  <num_uniq_frag_ints>  (65) 
2

>  <num_repl_uniq_ints>  (65) 
2

>  <num_uniq_ints_lost>  (65) 
0

>  <num_new_uniq_ints>  (65) 
4

>  <int_check>  (65) 
True

>  <tversky>  (65) 
0.32095085793937683

>  <mean_vol_overlap>  (65) 
0.5584456476739574

>  <rotat_bonds>  (65) 
4

>  <ref_url>  (65) 
https://pubs.acs.org/doi/10.1021/acs.jcim.3c00276?fig=tgr1&ref=pdf

>  <submitter_name>  (65) 
Steph Wills

>  <submitter_institution>  (65) 
University of Oxford

>  <submitter_email>  (65) 
stephanie.wills@balliol.ox.ac.uk

>  <generation_date>  (65) 
2023-11-27

>  <method>  (65) 
FragNetv2_pt2

>  <original SMILES>  (65) 
CCC(=O)Nc1cccc(-c2noc(C3CCCO3)n2)c1

>  <original_name>  (65) 
x0416_0A-x0310_0A_20338_B1X

>  <ref_mols>  (65) 
x0416_0A,x0310_0A

>  <ref_pdb>  (65) 
x0310_0A

>  <rationale>  (65) 
FragNet: 1 round bioisosteric merging incl C1CCOC1 and CCC(=O)N[Xe] replacing N#CCC(=O)N[Xe]

$$$$
x0416_0A-x0310_0A_181029_B1X
     RDKit          3D

 16 16  0  0  0  0  0  0  0  0999 V2000
    9.9380    9.1330   23.0180 C   0  0  0  0  0  0  0  0  0  0  0  0
    9.0180   10.0220   23.8510 C   0  0  0  0  0  0  0  0  0  0  0  0
    8.0390    9.5150   24.5960 N   0  0  0  0  0  0  0  0  0  0  0  0
    7.2870   10.4040   25.2930 C   0  0  0  0  0  0  0  0  0  0  0  0
    7.4740   11.9280   25.2740 C   0  0  0  0  0  0  0  0  0  0  0  0
    6.3530   13.0580   26.2860 Br  0  0  0  0  0  0  0  0  0  0  0  0
    8.5970   12.4710   24.4120 C   0  0  0  0  0  0  0  0  0  0  0  0
    9.3190   11.4960   23.7430 C   0  0  0  0  0  0  0  0  0  0  0  0
   10.3740   12.0150   22.9540 N   0  0  0  0  0  0  0  0  0  0  0  0
   10.8720   13.2900   23.3270 C   0  0  0  0  0  0  0  0  0  0  0  0
   11.0820   13.6990   24.6920 O   0  0  0  0  0  0  0  0  0  0  0  0
   11.1360   14.2000   22.2000 C   0  0  0  0  0  0  0  0  0  0  0  0
   12.3840   14.9470   22.2220 C   0  0  0  0  0  0  0  0  0  0  0  0
   13.1710   14.5250   20.9820 C   0  0  0  0  0  0  0  0  0  0  0  0
   12.0530   16.4080   22.1010 C   0  0  0  0  0  0  0  0  0  0  0  0
   13.0940   14.6450   23.5200 C   0  0  0  0  0  0  0  0  0  0  0  0
  1  2  1  0
  2  3  2  0
  3  4  1  0
  4  5  2  0
  5  6  1  0
  5  7  1  0
  7  8  2  0
  8  9  1  0
  9 10  1  0
 10 11  2  0
 10 12  1  0
 12 13  1  0
 13 14  1  0
 13 15  1  0
 13 16  1  0
  8  2  1  0
A    1
 C1 
A    2
 C2 
A    3
 N1 
A    4
 C3 
A    5
 C4 
A    6
BR1 
A    7
 C5 
A    8
 C6 
A    9
 N2 
A   10
 C7 
A   11
 O1 
A   12
 C8 
A   13
 C9 
A   14
 C10
A   15
 C11
A   16
 C12
M  END
>  <similarity>  (66) 
1.0

>  <smiles>  (66) 
Cc1ncc(Br)cc1NC(=O)CC(C)(C)C

>  <cmpd_id>  (66) 
ENAMINE:Z2285273110

>  <used_subnode>  (66) 
c1ccncc1

>  <used_synthon>  (66) 
CC(C)(C)CC(=O)N[Xe]

>  <ref_subnode>  (66) 
c1ccncc1

>  <ref_synthon>  (66) 
N#CCC(=O)N[Xe]

>  <fragmentA>  (66) 
x0416_0A

>  <fragmentB>  (66) 
x0310_0A

>  <HA>  (66) 
16

>  <HBD>  (66) 
1

>  <HBA>  (66) 
2

>  <MW>  (66) 
284.052425264

>  <TPSA>  (66) 
41.99

>  <LogP>  (66) 
3.5272200000000016

>  <RBs>  (66) 
2

>  <G_bound>  (66) 
-12.403226190522016

>  <G_unbound>  (66) 
0.2697295704350366

>  <deltaG>  (66) 
-12.672955760957052

>  <comRMSD>  (66) 
0.5666602720642548

>  <substructure_overlap_check>  (66) 
True

>  <energy_ratio_check>  (66) 
True

>  <const_energy/unconst_energy>  (66) 
6.999012137974039

>  <sucos>  (66) 
0.5701712559935082

>  <interactions>  (66) 
Hydrophobic_TYR-90,Hydrophobic_VAL-124,HBAcceptor_SER-105,Hydrophobic_TYR-89,Hydrophobic_PRO-107,Hydrophobic_HIS-21

>  <total_num_ints>  (66) 
6

>  <total_num_ints_nonhyd>  (66) 
1

>  <num_uniq_frag_ints>  (66) 
2

>  <num_repl_uniq_ints>  (66) 
2

>  <num_uniq_ints_lost>  (66) 
0

>  <num_new_uniq_ints>  (66) 
4

>  <int_check>  (66) 
True

>  <tversky>  (66) 
0.3545922176461098

>  <mean_vol_overlap>  (66) 
0.560040780058144

>  <rotat_bonds>  (66) 
2

>  <ref_url>  (66) 
https://pubs.acs.org/doi/10.1021/acs.jcim.3c00276?fig=tgr1&ref=pdf

>  <submitter_name>  (66) 
Steph Wills

>  <submitter_institution>  (66) 
University of Oxford

>  <submitter_email>  (66) 
stephanie.wills@balliol.ox.ac.uk

>  <generation_date>  (66) 
2023-11-27

>  <method>  (66) 
FragNetv2_pt2

>  <original SMILES>  (66) 
Cc1ncc(Br)cc1NC(=O)CC(C)(C)C

>  <original_name>  (66) 
x0416_0A-x0310_0A_181029_B1X

>  <ref_mols>  (66) 
x0416_0A,x0310_0A

>  <ref_pdb>  (66) 
x0310_0A

>  <rationale>  (66) 
FragNet: 1 round bioisosteric merging incl c1ccncc1 and CC(C)(C)CC(=O)N[Xe] replacing N#CCC(=O)N[Xe]

$$$$
x0416_0A-x0310_0A_146484_B1X
     RDKit          3D

 16 16  0  0  0  0  0  0  0  0999 V2000
   11.8500   14.4650   20.2220 C   0  0  0  0  0  0  0  0  0  0  0  0
   13.0810   14.8890   21.0240 C   0  0  0  0  0  0  0  0  0  0  0  0
   12.8740   14.9040   22.5190 C   0  0  1  0  0  0  0  0  0  0  0  0
   11.8950   15.7720   22.8630 C   0  0  0  0  0  0  0  0  0  0  0  0
   12.3510   13.4990   22.8100 C   0  0  0  0  0  0  0  0  0  0  0  0
   11.0270   13.4090   23.5380 C   0  0  0  0  0  0  0  0  0  0  0  0
   10.7960   13.9520   24.6080 O   0  0  0  0  0  0  0  0  0  0  0  0
   10.0990   12.6260   22.8860 N   0  0  0  0  0  0  0  0  0  0  0  0
    9.1610   11.8560   23.7020 C   0  0  0  0  0  0  0  0  0  0  0  0
    8.1770   12.6420   24.5680 C   0  0  0  0  0  0  0  0  0  0  0  0
    7.2420   11.7680   25.3900 C   0  0  0  0  0  0  0  0  0  0  0  0
    6.0610   12.4370   26.4360 Cl  0  0  0  0  0  0  0  0  0  0  0  0
    7.2740   10.4320   25.3590 N   0  0  0  0  0  0  0  0  0  0  0  0
    8.1940    9.8790   24.5460 C   0  0  0  0  0  0  0  0  0  0  0  0
    9.1120   10.4690   23.7360 C   0  0  0  0  0  0  0  0  0  0  0  0
   10.1870    9.2930   22.7640 Br  0  0  0  0  0  0  0  0  0  0  0  0
  1  2  2  3
  2  3  1  0
  3  4  1  6
  3  5  1  0
  5  6  1  0
  6  7  2  0
  6  8  1  0
  8  9  1  0
  9 10  2  0
 10 11  1  0
 11 12  1  0
 11 13  2  0
 13 14  1  0
 14 15  2  0
 15 16  1  0
 15  9  1  0
A    1
 C1 
A    2
 C2 
A    3
 C3 
A    4
 C4 
A    5
 C5 
A    6
 C6 
A    7
 O1 
A    8
 N1 
A    9
 C7 
A   10
 C8 
A   11
 C9 
A   12
CL1 
A   13
 N2 
A   14
 C10
A   15
 C11
A   16
BR1 
M  END
>  <similarity>  (67) 
1.0

>  <smiles>  (67) 
C=CC(C)CC(=O)Nc1cc(Cl)ncc1Br

>  <cmpd_id>  (67) 
ENAMINE:Z4334289072

>  <used_subnode>  (67) 
c1ccncc1

>  <used_synthon>  (67) 
C=CC(C)CC(=O)N[Xe]

>  <ref_subnode>  (67) 
c1ccncc1

>  <ref_synthon>  (67) 
N#CCC(=O)N[Xe]

>  <fragmentA>  (67) 
x0416_0A

>  <fragmentB>  (67) 
x0310_0A

>  <HA>  (67) 
16

>  <HBD>  (67) 
1

>  <HBA>  (67) 
2

>  <MW>  (67) 
301.982152784

>  <TPSA>  (67) 
41.99

>  <LogP>  (67) 
3.648200000000002

>  <RBs>  (67) 
4

>  <G_bound>  (67) 
-5.9079597431335715

>  <G_unbound>  (67) 
0.5102545386276579

>  <deltaG>  (67) 
-6.418214281761229

>  <comRMSD>  (67) 
0.826910840360964

>  <substructure_overlap_check>  (67) 
True

>  <energy_ratio_check>  (67) 
True

>  <const_energy/unconst_energy>  (67) 
6.037099655724584

>  <sucos>  (67) 
0.5702557559774184

>  <interactions>  (67) 
HBDonor_SER-125,Hydrophobic_TYR-90,Hydrophobic_VAL-124,Hydrophobic_TYR-89,Hydrophobic_PRO-107,Hydrophobic_HIS-21

>  <total_num_ints>  (67) 
6

>  <total_num_ints_nonhyd>  (67) 
1

>  <num_uniq_frag_ints>  (67) 
2

>  <num_repl_uniq_ints>  (67) 
2

>  <num_uniq_ints_lost>  (67) 
0

>  <num_new_uniq_ints>  (67) 
4

>  <int_check>  (67) 
True

>  <tversky>  (67) 
0.2879521624495529

>  <mean_vol_overlap>  (67) 
0.5550927776140671

>  <rotat_bonds>  (67) 
4

>  <ref_url>  (67) 
https://pubs.acs.org/doi/10.1021/acs.jcim.3c00276?fig=tgr1&ref=pdf

>  <submitter_name>  (67) 
Steph Wills

>  <submitter_institution>  (67) 
University of Oxford

>  <submitter_email>  (67) 
stephanie.wills@balliol.ox.ac.uk

>  <generation_date>  (67) 
2023-11-27

>  <method>  (67) 
FragNetv2_pt2

>  <original SMILES>  (67) 
C=CC(C)CC(=O)Nc1cc(Cl)ncc1Br

>  <original_name>  (67) 
x0416_0A-x0310_0A_146484_B1X

>  <ref_mols>  (67) 
x0416_0A,x0310_0A

>  <ref_pdb>  (67) 
x0310_0A

>  <rationale>  (67) 
FragNet: 1 round bioisosteric merging incl c1ccncc1 and C=CC(C)CC(=O)N[Xe] replacing N#CCC(=O)N[Xe]

$$$$
x0416_0A-x0310_0A_153696_B1X
     RDKit          3D

 19 19  0  0  0  0  0  0  0  0999 V2000
   10.0710    9.4010   22.8850 C   0  0  0  0  0  0  0  0  0  0  0  0
    9.1330   10.2290   23.7470 C   0  0  0  0  0  0  0  0  0  0  0  0
    8.1930    9.6110   24.4760 N   0  0  0  0  0  0  0  0  0  0  0  0
    7.3930   10.4250   25.2180 C   0  0  0  0  0  0  0  0  0  0  0  0
    7.5250   11.9480   25.2400 C   0  0  0  0  0  0  0  0  0  0  0  0
    6.5750   12.8060   26.1130 C   0  0  0  0  0  0  0  0  0  0  0  0
    5.9240   13.7660   25.7090 O   0  0  0  0  0  0  0  0  0  0  0  0
    6.5870   12.3060   27.4120 O   0  0  0  0  0  0  0  0  0  0  0  0
    8.5510   12.4290   24.4300 C   0  0  0  0  0  0  0  0  0  0  0  0
    9.3730   11.5910   23.6740 C   0  0  0  0  0  0  0  0  0  0  0  0
   10.3860   12.2600   22.9120 N   0  0  0  0  0  0  0  0  0  0  0  0
   11.1580   13.2070   23.5220 C   0  0  0  0  0  0  0  0  0  0  0  0
   10.8580   13.8230   24.7780 O   0  0  0  0  0  0  0  0  0  0  0  0
   12.3050   13.5630   22.8390 C   0  0  0  0  0  0  0  0  0  0  0  0
   12.4280   15.0040   23.2110 C   0  0  0  0  0  0  0  0  0  0  0  0
   12.2090   15.6810   21.8980 C   0  0  0  0  0  0  0  0  0  0  0  0
   11.9060   16.9810   22.0410 F   0  0  0  0  0  0  0  0  0  0  0  0
   11.1830   15.1050   21.2250 F   0  0  0  0  0  0  0  0  0  0  0  0
   13.3210   15.5860   21.1460 F   0  0  0  0  0  0  0  0  0  0  0  0
  1  2  1  0
  2  3  2  0
  3  4  1  0
  4  5  2  0
  5  6  1  0
  6  7  2  0
  6  8  1  0
  5  9  1  0
  9 10  2  0
 10 11  1  0
 11 12  1  0
 12 13  2  0
 12 14  1  0
 14 15  1  0
 15 16  1  0
 16 17  1  0
 16 18  1  0
 16 19  1  0
 10  2  1  0
A    1
 C1 
A    2
 C2 
A    3
 N1 
A    4
 C3 
A    5
 C4 
A    6
 C5 
A    7
 O1 
A    8
 O2 
A    9
 C6 
A   10
 C7 
A   11
 N2 
A   12
 C8 
A   13
 O3 
A   14
 C9 
A   15
 C10
A   16
 C11
A   17
 F1 
A   18
 F2 
A   19
 F3 
M  END
>  <similarity>  (68) 
1.0

>  <smiles>  (68) 
Cc1ncc(C(=O)O)cc1NC(=O)CCC(F)(F)F

>  <cmpd_id>  (68) 
ENAMINE:Z3173382016

>  <used_subnode>  (68) 
c1ccncc1

>  <used_synthon>  (68) 
O=C(CCC(F)(F)F)N[Xe]

>  <ref_subnode>  (68) 
c1ccncc1

>  <ref_synthon>  (68) 
N#CCC(=O)N[Xe]

>  <fragmentA>  (68) 
x0416_0A

>  <fragmentB>  (68) 
x0310_0A

>  <HA>  (68) 
19

>  <HBD>  (68) 
2

>  <HBA>  (68) 
3

>  <MW>  (68) 
276.07217687200006

>  <TPSA>  (68) 
79.28999999999999

>  <LogP>  (68) 
2.3692200000000003

>  <RBs>  (68) 
4

>  <G_bound>  (68) 
-6.222796639163198

>  <G_unbound>  (68) 
0.79387545999056

>  <deltaG>  (68) 
-7.016672099153758

>  <comRMSD>  (68) 
0.5684332070462281

>  <substructure_overlap_check>  (68) 
True

>  <energy_ratio_check>  (68) 
True

>  <const_energy/unconst_energy>  (68) 
6.537185514032189

>  <sucos>  (68) 
0.5721628279294098

>  <interactions>  (68) 
HBDonor_SER-125,Hydrophobic_VAL-124,HBAcceptor_SER-105,Hydrophobic_TYR-89,Hydrophobic_PRO-107,Hydrophobic_HIS-21

>  <total_num_ints>  (68) 
6

>  <total_num_ints_nonhyd>  (68) 
2

>  <num_uniq_frag_ints>  (68) 
2

>  <num_repl_uniq_ints>  (68) 
2

>  <num_uniq_ints_lost>  (68) 
0

>  <num_new_uniq_ints>  (68) 
4

>  <int_check>  (68) 
True

>  <tversky>  (68) 
0.34750250158149953

>  <mean_vol_overlap>  (68) 
0.5617413272234161

>  <rotat_bonds>  (68) 
4

>  <ref_url>  (68) 
https://pubs.acs.org/doi/10.1021/acs.jcim.3c00276?fig=tgr1&ref=pdf

>  <submitter_name>  (68) 
Steph Wills

>  <submitter_institution>  (68) 
University of Oxford

>  <submitter_email>  (68) 
stephanie.wills@balliol.ox.ac.uk

>  <generation_date>  (68) 
2023-11-27

>  <method>  (68) 
FragNetv2_pt2

>  <original SMILES>  (68) 
Cc1ncc(C(=O)O)cc1NC(=O)CCC(F)(F)F

>  <original_name>  (68) 
x0416_0A-x0310_0A_153696_B1X

>  <ref_mols>  (68) 
x0416_0A,x0310_0A

>  <ref_pdb>  (68) 
x0310_0A

>  <rationale>  (68) 
FragNet: 1 round bioisosteric merging incl c1ccncc1 and O=C(CCC(F)(F)F)N[Xe] replacing N#CCC(=O)N[Xe]

$$$$
x0416_0A-x0310_0A_27593_B1X
     RDKit          3D

 18 20  0  0  0  0  0  0  0  0999 V2000
    8.0870   14.0230   25.8740 O   0  0  0  0  0  0  0  0  0  0  0  0
    7.4450   13.1320   25.3220 C   0  0  0  0  0  0  0  0  0  0  0  0
    6.0760   13.1630   25.1710 N   0  0  0  0  0  0  0  0  0  0  0  0
    5.1670   13.1230   26.2250 C   0  0  0  0  0  0  0  0  0  0  0  0
    5.1480   11.9000   27.1350 C   0  0  1  0  0  0  0  0  0  0  0  0
    5.9600   11.9010   28.2650 C   0  0  0  0  0  0  0  0  0  0  0  0
    5.2520   12.4350   29.3170 C   0  0  0  0  0  0  0  0  0  0  0  0
    3.9010   12.5530   28.9920 C   0  0  0  0  0  0  0  0  0  0  0  0
    3.8080   11.9240   27.7050 O   0  0  0  0  0  0  0  0  0  0  0  0
    8.0820   11.9520   24.7550 C   0  0  0  0  0  0  0  0  0  0  0  0
    7.6470   10.6790   24.7330 N   0  0  0  0  0  0  0  0  0  0  0  0
    8.4360    9.7630   24.1250 N   0  0  0  0  0  0  0  0  0  0  0  0
    9.5100   10.5190   23.7010 C   0  0  0  0  0  0  0  0  0  0  0  0
    9.4110   11.8600   24.0480 C   0  0  0  0  0  0  0  0  0  0  0  0
   10.1570   12.9860   23.9190 C   0  0  0  0  0  0  0  0  0  0  0  0
   10.9740   12.5270   22.7450 C   0  0  0  0  0  0  0  0  0  0  0  0
   11.5780   11.1150   22.8130 C   0  0  0  0  0  0  0  0  0  0  0  0
   10.6370   10.0770   23.0060 C   0  0  0  0  0  0  0  0  0  0  0  0
  1  2  2  0
  2  3  1  0
  3  4  1  0
  5  4  1  6
  5  6  1  0
  6  7  1  0
  7  8  1  0
  8  9  1  0
  2 10  1  0
 10 11  1  0
 11 12  1  0
 12 13  2  0
 13 14  1  0
 14 15  1  0
 15 16  1  0
 16 17  1  0
 17 18  1  0
  9  5  1  0
 14 10  2  0
 18 13  1  0
A    1
 O1 
A    2
 C1 
A    3
 N1 
A    4
 C2 
A    5
 C3 
A    6
 C4 
A    7
 C5 
A    8
 C6 
A    9
 O2 
A   10
 C7 
A   11
 N2 
A   12
 N3 
A   13
 C8 
A   14
 C9 
A   15
 C10
A   16
 C11
A   17
 C12
A   18
 C13
M  END
>  <similarity>  (69) 
1.0

>  <smiles>  (69) 
O=C(NCC1CCCO1)c1[nH]nc2c1CCCC2

>  <cmpd_id>  (69) 
ENAMINE:Z2283382765,ENAMINE:Z2643474401,ENAMINE:Z358358594

>  <used_subnode>  (69) 
C1CCOC1

>  <used_synthon>  (69) 
[Xe]c1[nH]nc2c1CCCC2

>  <ref_subnode>  (69) 
C1CCOC1

>  <ref_synthon>  (69) 
[Xe]c1cc[nH]n1

>  <fragmentA>  (69) 
x0416_0A

>  <fragmentB>  (69) 
x0310_0A

>  <HA>  (69) 
18

>  <HBD>  (69) 
2

>  <HBA>  (69) 
3

>  <MW>  (69) 
249.147726848

>  <TPSA>  (69) 
67.00999999999999

>  <LogP>  (69) 
1.1972999999999996

>  <RBs>  (69) 
3

>  <G_bound>  (69) 
-2.7345546008223867

>  <G_unbound>  (69) 
0.7868494811593304

>  <deltaG>  (69) 
-3.521404081981717

>  <comRMSD>  (69) 
0.4716428461775883

>  <substructure_overlap_check>  (69) 
True

>  <energy_ratio_check>  (69) 
True

>  <const_energy/unconst_energy>  (69) 
3.1571691678179854

>  <sucos>  (69) 
0.5778332855381759

>  <interactions>  (69) 
Hydrophobic_CYS-110,Hydrophobic_VAL-124,HBDonor_GLY-127,Hydrophobic_PRO-107

>  <total_num_ints>  (69) 
4

>  <total_num_ints_nonhyd>  (69) 
1

>  <num_uniq_frag_ints>  (69) 
2

>  <num_repl_uniq_ints>  (69) 
2

>  <num_uniq_ints_lost>  (69) 
0

>  <num_new_uniq_ints>  (69) 
2

>  <int_check>  (69) 
True

>  <tversky>  (69) 
0.29335101315382744

>  <mean_vol_overlap>  (69) 
0.5667024592196116

>  <rotat_bonds>  (69) 
3

>  <ref_url>  (69) 
https://pubs.acs.org/doi/10.1021/acs.jcim.3c00276?fig=tgr1&ref=pdf

>  <submitter_name>  (69) 
Steph Wills

>  <submitter_institution>  (69) 
University of Oxford

>  <submitter_email>  (69) 
stephanie.wills@balliol.ox.ac.uk

>  <generation_date>  (69) 
2023-11-27

>  <method>  (69) 
FragNetv2_pt2

>  <original SMILES>  (69) 
O=C(NCC1CCCO1)c1[nH]nc2c1CCCC2

>  <original_name>  (69) 
x0416_0A-x0310_0A_27593_B1X

>  <ref_mols>  (69) 
x0416_0A,x0310_0A

>  <ref_pdb>  (69) 
x0310_0A

>  <rationale>  (69) 
FragNet: 1 round bioisosteric merging incl C1CCOC1 and [Xe]c1[nH]nc2c1CCCC2 replacing [Xe]c1cc[nH]n1

$$$$
x0416_0A-x0310_0A_114910_B1X
     RDKit          3D

 17 17  0  0  0  0  0  0  0  0999 V2000
   10.3250    9.3850   22.8230 C   0  0  0  0  0  0  0  0  0  0  0  0
    9.3860   10.2940   23.6080 C   0  0  0  0  0  0  0  0  0  0  0  0
    8.4020    9.6530   24.2900 N   0  0  0  0  0  0  0  0  0  0  0  0
    7.5480   10.4150   25.0050 C   0  0  0  0  0  0  0  0  0  0  0  0
    7.6360   11.9370   25.0680 C   0  0  0  0  0  0  0  0  0  0  0  0
    6.7090   12.6590   25.8270 C   0  0  0  0  0  0  0  0  0  0  0  0
    6.1390   12.2460   26.8220 O   0  0  0  0  0  0  0  0  0  0  0  0
    6.4850   13.9010   25.3670 O   0  0  0  0  0  0  0  0  0  0  0  0
    8.6760   12.5040   24.3400 C   0  0  0  0  0  0  0  0  0  0  0  0
    9.5580   11.6960   23.6110 C   0  0  0  0  0  0  0  0  0  0  0  0
   10.6070   12.2680   22.9140 N   0  0  0  0  0  0  0  0  0  0  0  0
   11.4270   13.2290   23.5340 C   0  0  0  0  0  0  0  0  0  0  0  0
   11.0170   13.8510   24.5050 O   0  0  0  0  0  0  0  0  0  0  0  0
   12.7300   13.5200   23.1030 C   0  0  0  0  0  0  0  0  0  0  0  0
   12.9390   12.9740   21.7260 C   0  0  0  0  0  0  0  0  0  0  0  0
   12.8990   15.0280   23.1180 C   0  0  0  0  0  0  0  0  0  0  0  0
   13.7860   12.8770   24.0100 C   0  0  0  0  0  0  0  0  0  0  0  0
  1  2  1  0
  2  3  2  0
  3  4  1  0
  4  5  2  0
  5  6  1  0
  6  7  2  0
  6  8  1  0
  5  9  1  0
  9 10  2  0
 10 11  1  0
 11 12  1  0
 12 13  2  0
 12 14  1  0
 14 15  1  0
 14 16  1  0
 14 17  1  0
 10  2  1  0
A    1
 C1 
A    2
 C2 
A    3
 N1 
A    4
 C3 
A    5
 C4 
A    6
 C5 
A    7
 O1 
A    8
 O2 
A    9
 C6 
A   10
 C7 
A   11
 N2 
A   12
 C8 
A   13
 O3 
A   14
 C9 
A   15
 C10
A   16
 C11
A   17
 C12
M  END
>  <similarity>  (70) 
1.0

>  <smiles>  (70) 
Cc1ncc(C(=O)O)cc1NC(=O)C(C)(C)C

>  <cmpd_id>  (70) 
ENAMINE:Z3173383095

>  <used_subnode>  (70) 
c1ccncc1

>  <used_synthon>  (70) 
CC(C)(C)C(=O)N[Xe]

>  <ref_subnode>  (70) 
c1ccncc1

>  <ref_synthon>  (70) 
N#CCC(=O)N[Xe]

>  <fragmentA>  (70) 
x0416_0A

>  <fragmentB>  (70) 
x0310_0A

>  <HA>  (70) 
17

>  <HBD>  (70) 
2

>  <HBA>  (70) 
3

>  <MW>  (70) 
236.116092372

>  <TPSA>  (70) 
79.28999999999999

>  <LogP>  (70) 
2.07282

>  <RBs>  (70) 
2

>  <G_bound>  (70) 
-12.085035120665445

>  <G_unbound>  (70) 
-0.1562831056187369

>  <deltaG>  (70) 
-11.928752015046708

>  <comRMSD>  (70) 
0.7720721560247729

>  <substructure_overlap_check>  (70) 
True

>  <energy_ratio_check>  (70) 
True

>  <const_energy/unconst_energy>  (70) 
3.290169347189115

>  <sucos>  (70) 
0.579488820582312

>  <interactions>  (70) 
Hydrophobic_CYS-110,HBDonor_SER-125,Hydrophobic_TYR-90,Hydrophobic_VAL-124,HBAcceptor_SER-105,Hydrophobic_TYR-89,Hydrophobic_PRO-107,Hydrophobic_HIS-21

>  <total_num_ints>  (70) 
8

>  <total_num_ints_nonhyd>  (70) 
2

>  <num_uniq_frag_ints>  (70) 
2

>  <num_repl_uniq_ints>  (70) 
2

>  <num_uniq_ints_lost>  (70) 
0

>  <num_new_uniq_ints>  (70) 
6

>  <int_check>  (70) 
True

>  <tversky>  (70) 
0.3376695896535893

>  <mean_vol_overlap>  (70) 
0.5642775027041953

>  <rotat_bonds>  (70) 
2

>  <ref_url>  (70) 
https://pubs.acs.org/doi/10.1021/acs.jcim.3c00276?fig=tgr1&ref=pdf

>  <submitter_name>  (70) 
Steph Wills

>  <submitter_institution>  (70) 
University of Oxford

>  <submitter_email>  (70) 
stephanie.wills@balliol.ox.ac.uk

>  <generation_date>  (70) 
2023-11-27

>  <method>  (70) 
FragNetv2_pt2

>  <original SMILES>  (70) 
Cc1ncc(C(=O)O)cc1NC(=O)C(C)(C)C

>  <original_name>  (70) 
x0416_0A-x0310_0A_114910_B1X

>  <ref_mols>  (70) 
x0416_0A,x0310_0A

>  <ref_pdb>  (70) 
x0310_0A

>  <rationale>  (70) 
FragNet: 1 round bioisosteric merging incl c1ccncc1 and CC(C)(C)C(=O)N[Xe] replacing N#CCC(=O)N[Xe]

$$$$
x0416_0A-x0310_0A_15452_B1X
     RDKit          3D

 18 19  0  0  0  0  0  0  0  0999 V2000
   12.2980   14.0830   22.6840 C   0  0  0  0  0  0  0  0  0  0  0  0
   11.0630   13.4070   23.2810 C   0  0  0  0  0  0  0  0  0  0  0  0
   10.9130   13.5730   24.6860 O   0  0  0  0  0  0  0  0  0  0  0  0
   10.2010   12.7340   22.4940 N   0  0  0  0  0  0  0  0  0  0  0  0
    9.5620   11.6900   23.2140 C   0  0  0  0  0  0  0  0  0  0  0  0
    8.6060   12.0040   24.1100 N   0  0  0  0  0  0  0  0  0  0  0  0
    8.0770   10.9340   24.6970 C   0  0  0  0  0  0  0  0  0  0  0  0
    7.0840   10.8560   25.6460 C   0  0  0  0  0  0  0  0  0  0  0  0
    7.1040   11.7800   26.5700 N   0  0  0  0  0  0  0  0  0  0  0  0
    7.0520   12.9160   25.8390 C   0  0  0  0  0  0  0  0  0  0  0  0
    6.2830   11.4080   27.6060 C   0  0  0  0  0  0  0  0  0  0  0  0
    5.5930   12.6440   28.0720 C   0  0  2  0  0  0  0  0  0  0  0  0
    4.8560   12.4600   29.3700 C   0  0  0  0  0  0  0  0  0  0  0  0
    3.4470   12.4280   28.8320 C   0  0  0  0  0  0  0  0  0  0  0  0
    3.4880   12.2770   27.5980 O   0  0  0  0  0  0  0  0  0  0  0  0
    4.4440   12.9130   27.1420 C   0  0  0  0  0  0  0  0  0  0  0  0
    8.6750    9.6450   24.2180 C   0  0  0  0  0  0  0  0  0  0  0  0
    9.9170   10.0050   23.0160 S   0  0  0  0  0  0  0  0  0  0  0  0
  1  2  1  0
  2  3  2  0
  2  4  1  0
  4  5  1  0
  5  6  2  0
  6  7  1  0
  7  8  1  0
  8  9  1  0
  9 10  1  0
  9 11  1  0
 12 11  1  6
 12 13  1  0
 13 14  1  0
 14 15  1  0
 15 16  1  0
  7 17  2  0
 17 18  1  0
 18  5  1  0
 16 12  1  0
A    1
 C1 
A    2
 C2 
A    3
 O1 
A    4
 N1 
A    5
 C3 
A    6
 N2 
A    7
 C4 
A    8
 C5 
A    9
 N3 
A   10
 C6 
A   11
 C7 
A   12
 C8 
A   13
 C9 
A   14
 C10
A   15
 O2 
A   16
 C11
A   17
 C12
A   18
 S1 
M  END
>  <similarity>  (71) 
1.0

>  <smiles>  (71) 
CC(=O)Nc1nc(CN(C)CC2CCOC2)cs1

>  <cmpd_id>  (71) 
ENAMINE:Z1347285977

>  <used_subnode>  (71) 
C1CCOC1

>  <used_synthon>  (71) 
CC(=O)N[Xe]

>  <ref_subnode>  (71) 
C1CCOC1

>  <ref_synthon>  (71) 
N#CCC(=O)N[Xe]

>  <fragmentA>  (71) 
x0416_0A

>  <fragmentB>  (71) 
x0310_0A

>  <HA>  (71) 
18

>  <HBD>  (71) 
1

>  <HBA>  (71) 
5

>  <MW>  (71) 
269.119797848

>  <TPSA>  (71) 
54.46000000000001

>  <LogP>  (71) 
1.5697999999999999

>  <RBs>  (71) 
5

>  <G_bound>  (71) 
-7.041433262373184

>  <G_unbound>  (71) 
0.2886670239246009

>  <deltaG>  (71) 
-7.330100286297785

>  <comRMSD>  (71) 
0.6815685784411777

>  <substructure_overlap_check>  (71) 
True

>  <energy_ratio_check>  (71) 
True

>  <const_energy/unconst_energy>  (71) 
4.850441752864172

>  <sucos>  (71) 
0.5813064157453385

>  <interactions>  (71) 
HBDonor_SER-125,Hydrophobic_VAL-124,Hydrophobic_PRO-107,Hydrophobic_HIS-21

>  <total_num_ints>  (71) 
4

>  <total_num_ints_nonhyd>  (71) 
1

>  <num_uniq_frag_ints>  (71) 
2

>  <num_repl_uniq_ints>  (71) 
2

>  <num_uniq_ints_lost>  (71) 
0

>  <num_new_uniq_ints>  (71) 
2

>  <int_check>  (71) 
True

>  <tversky>  (71) 
0.26572168419070624

>  <mean_vol_overlap>  (71) 
0.5881817613655999

>  <rotat_bonds>  (71) 
5

>  <ref_url>  (71) 
https://pubs.acs.org/doi/10.1021/acs.jcim.3c00276?fig=tgr1&ref=pdf

>  <submitter_name>  (71) 
Steph Wills

>  <submitter_institution>  (71) 
University of Oxford

>  <submitter_email>  (71) 
stephanie.wills@balliol.ox.ac.uk

>  <generation_date>  (71) 
2023-11-27

>  <method>  (71) 
FragNetv2_pt2

>  <original SMILES>  (71) 
CC(=O)Nc1nc(CN(C)CC2CCOC2)cs1

>  <original_name>  (71) 
x0416_0A-x0310_0A_15452_B1X

>  <ref_mols>  (71) 
x0416_0A,x0310_0A

>  <ref_pdb>  (71) 
x0310_0A

>  <rationale>  (71) 
FragNet: 1 round bioisosteric merging incl C1CCOC1 and CC(=O)N[Xe] replacing N#CCC(=O)N[Xe]

$$$$
x0416_0A-x0310_0A_14641_B1X
     RDKit          3D

 18 19  0  0  0  0  0  0  0  0999 V2000
   12.4030   14.0290   22.4530 C   0  0  0  0  0  0  0  0  0  0  0  0
   11.2880   13.4750   23.2960 C   0  0  0  0  0  0  0  0  0  0  0  0
   11.0840   13.9010   24.4250 O   0  0  0  0  0  0  0  0  0  0  0  0
   10.5840   12.4870   22.6560 N   0  0  0  0  0  0  0  0  0  0  0  0
    9.7370   11.6280   23.3420 C   0  0  0  0  0  0  0  0  0  0  0  0
    8.8380   12.1660   24.1730 N   0  0  0  0  0  0  0  0  0  0  0  0
    8.0750   11.2760   24.7910 C   0  0  0  0  0  0  0  0  0  0  0  0
    7.0820   11.6050   25.6910 C   0  0  0  0  0  0  0  0  0  0  0  0
    7.5240   12.8500   26.2700 O   0  0  0  0  0  0  0  0  0  0  0  0
    7.1280   13.0530   27.6320 C   0  0  0  0  0  0  0  0  0  0  0  0
    7.6590   14.0690   28.5090 O   0  0  0  0  0  0  0  0  0  0  0  0
    6.0550   12.0500   28.0460 C   0  0  1  0  0  0  0  0  0  0  0  0
    5.2240   12.5640   29.1940 C   0  0  0  0  0  0  0  0  0  0  0  0
    3.7620   12.5620   28.7830 C   0  0  0  0  0  0  0  0  0  0  0  0
    3.6160   12.0930   27.6480 O   0  0  0  0  0  0  0  0  0  0  0  0
    4.9210   11.9500   27.0030 C   0  0  0  0  0  0  0  0  0  0  0  0
    8.4390    9.8550   24.3780 C   0  0  0  0  0  0  0  0  0  0  0  0
    9.7180    9.7860   23.2440 S   0  0  0  0  0  0  0  0  0  0  0  0
  1  2  1  0
  2  3  2  0
  2  4  1  0
  4  5  1  0
  5  6  2  0
  6  7  1  0
  7  8  1  0
  8  9  1  0
  9 10  1  0
 10 11  2  0
 12 10  1  6
 12 13  1  0
 13 14  1  0
 14 15  1  0
 15 16  1  0
  7 17  2  0
 17 18  1  0
 18  5  1  0
 16 12  1  0
A    1
 C1 
A    2
 C2 
A    3
 O1 
A    4
 N1 
A    5
 C3 
A    6
 N2 
A    7
 C4 
A    8
 C5 
A    9
 O2 
A   10
 C6 
A   11
 O3 
A   12
 C7 
A   13
 C8 
A   14
 C9 
A   15
 O4 
A   16
 C10
A   17
 C11
A   18
 S1 
M  END
>  <similarity>  (72) 
1.0

>  <smiles>  (72) 
CC(=O)Nc1nc(COC(=O)C2CCOC2)cs1

>  <cmpd_id>  (72) 
ENAMINE:Z3011084802

>  <used_subnode>  (72) 
C1CCOC1

>  <used_synthon>  (72) 
CC(=O)N[Xe]

>  <ref_subnode>  (72) 
C1CCOC1

>  <ref_synthon>  (72) 
N#CCC(=O)N[Xe]

>  <fragmentA>  (72) 
x0416_0A

>  <fragmentB>  (72) 
x0310_0A

>  <HA>  (72) 
18

>  <HBD>  (72) 
1

>  <HBA>  (72) 
6

>  <MW>  (72) 
270.06742792800003

>  <TPSA>  (72) 
77.52

>  <LogP>  (72) 
1.1811999999999998

>  <RBs>  (72) 
4

>  <G_bound>  (72) 
-6.979763129311204

>  <G_unbound>  (72) 
0.9895909755754939

>  <deltaG>  (72) 
-7.969354104886698

>  <comRMSD>  (72) 
0.8967310891123985

>  <substructure_overlap_check>  (72) 
True

>  <energy_ratio_check>  (72) 
True

>  <const_energy/unconst_energy>  (72) 
4.790210886071333

>  <sucos>  (72) 
0.5846219256308051

>  <interactions>  (72) 
HBDonor_SER-125,Hydrophobic_VAL-124,Hydrophobic_PRO-107,Hydrophobic_HIS-21

>  <total_num_ints>  (72) 
4

>  <total_num_ints_nonhyd>  (72) 
1

>  <num_uniq_frag_ints>  (72) 
2

>  <num_repl_uniq_ints>  (72) 
2

>  <num_uniq_ints_lost>  (72) 
0

>  <num_new_uniq_ints>  (72) 
2

>  <int_check>  (72) 
True

>  <tversky>  (72) 
0.2701997901088846

>  <mean_vol_overlap>  (72) 
0.5661273821481261

>  <rotat_bonds>  (72) 
4

>  <ref_url>  (72) 
https://pubs.acs.org/doi/10.1021/acs.jcim.3c00276?fig=tgr1&ref=pdf

>  <submitter_name>  (72) 
Steph Wills

>  <submitter_institution>  (72) 
University of Oxford

>  <submitter_email>  (72) 
stephanie.wills@balliol.ox.ac.uk

>  <generation_date>  (72) 
2023-11-27

>  <method>  (72) 
FragNetv2_pt2

>  <original SMILES>  (72) 
CC(=O)Nc1nc(COC(=O)C2CCOC2)cs1

>  <original_name>  (72) 
x0416_0A-x0310_0A_14641_B1X

>  <ref_mols>  (72) 
x0416_0A,x0310_0A

>  <ref_pdb>  (72) 
x0310_0A

>  <rationale>  (72) 
FragNet: 1 round bioisosteric merging incl C1CCOC1 and CC(=O)N[Xe] replacing N#CCC(=O)N[Xe]

$$$$
x0416_0A-x0310_0A_16909_B1X
     RDKit          3D

 17 18  0  0  0  0  0  0  0  0999 V2000
   12.2650   14.2180   22.5650 C   0  0  0  0  0  0  0  0  0  0  0  0
   11.1790   13.4150   23.2600 C   0  0  0  0  0  0  0  0  0  0  0  0
   10.8510   13.7620   24.6060 O   0  0  0  0  0  0  0  0  0  0  0  0
   10.5690   12.4180   22.5930 N   0  0  0  0  0  0  0  0  0  0  0  0
    9.7760   11.6040   23.2730 C   0  0  0  0  0  0  0  0  0  0  0  0
    8.9350   12.2090   24.0820 N   0  0  0  0  0  0  0  0  0  0  0  0
    8.1990   11.2650   24.6980 C   0  0  0  0  0  0  0  0  0  0  0  0
    7.1240   11.6600   25.7120 C   0  0  0  0  0  0  0  0  0  0  0  0
    7.2200   13.3220   26.1230 S   0  0  0  0  0  0  0  0  0  0  0  0
    6.9610   13.2380   27.8760 C   0  0  0  0  0  0  0  0  0  0  0  0
    5.9910   12.1270   28.2400 C   0  0  1  0  0  0  0  0  0  0  0  0
    5.1390   12.4390   29.2840 C   0  0  0  0  0  0  0  0  0  0  0  0
    3.7170   12.5830   28.7450 C   0  0  0  0  0  0  0  0  0  0  0  0
    3.6730   12.0120   27.6500 O   0  0  0  0  0  0  0  0  0  0  0  0
    5.0040   11.8830   27.0970 C   0  0  0  0  0  0  0  0  0  0  0  0
    8.5140    9.8290   24.3190 C   0  0  0  0  0  0  0  0  0  0  0  0
    9.7730    9.8880   23.1740 S   0  0  0  0  0  0  0  0  0  0  0  0
  1  2  1  0
  2  3  2  0
  2  4  1  0
  4  5  1  0
  5  6  2  0
  6  7  1  0
  7  8  1  0
  8  9  1  0
  9 10  1  0
 11 10  1  6
 11 12  1  0
 12 13  1  0
 13 14  1  0
 14 15  1  0
  7 16  2  0
 16 17  1  0
 17  5  1  0
 15 11  1  0
A    1
 C1 
A    2
 C2 
A    3
 O1 
A    4
 N1 
A    5
 C3 
A    6
 N2 
A    7
 C4 
A    8
 C5 
A    9
 S1 
A   10
 C6 
A   11
 C7 
A   12
 C8 
A   13
 C9 
A   14
 O2 
A   15
 C10
A   16
 C11
A   17
 S2 
M  END
>  <similarity>  (73) 
1.0

>  <smiles>  (73) 
CC(=O)Nc1nc(CSCC2CCOC2)cs1

>  <cmpd_id>  (73) 
ENAMINE:Z3342330942

>  <used_subnode>  (73) 
C1CCOC1

>  <used_synthon>  (73) 
CC(=O)N[Xe]

>  <ref_subnode>  (73) 
C1CCOC1

>  <ref_synthon>  (73) 
N#CCC(=O)N[Xe]

>  <fragmentA>  (73) 
x0416_0A

>  <fragmentB>  (73) 
x0310_0A

>  <HA>  (73) 
17

>  <HBD>  (73) 
1

>  <HBA>  (73) 
5

>  <MW>  (73) 
272.065319752

>  <TPSA>  (73) 
51.22

>  <LogP>  (73) 
2.371200000000001

>  <RBs>  (73) 
5

>  <G_bound>  (73) 
-7.785864212803585

>  <G_unbound>  (73) 
0.6065930115829717

>  <deltaG>  (73) 
-8.392457224386556

>  <comRMSD>  (73) 
0.432559396372807

>  <substructure_overlap_check>  (73) 
True

>  <energy_ratio_check>  (73) 
True

>  <const_energy/unconst_energy>  (73) 
4.434902763568842

>  <sucos>  (73) 
0.596149801208853

>  <interactions>  (73) 
HBDonor_SER-125,Hydrophobic_VAL-124,Hydrophobic_PRO-107,Hydrophobic_HIS-21

>  <total_num_ints>  (73) 
4

>  <total_num_ints_nonhyd>  (73) 
1

>  <num_uniq_frag_ints>  (73) 
2

>  <num_repl_uniq_ints>  (73) 
2

>  <num_uniq_ints_lost>  (73) 
0

>  <num_new_uniq_ints>  (73) 
2

>  <int_check>  (73) 
True

>  <tversky>  (73) 
0.2701997901088846

>  <mean_vol_overlap>  (73) 
0.5896243471318621

>  <rotat_bonds>  (73) 
5

>  <ref_url>  (73) 
https://pubs.acs.org/doi/10.1021/acs.jcim.3c00276?fig=tgr1&ref=pdf

>  <submitter_name>  (73) 
Steph Wills

>  <submitter_institution>  (73) 
University of Oxford

>  <submitter_email>  (73) 
stephanie.wills@balliol.ox.ac.uk

>  <generation_date>  (73) 
2023-11-27

>  <method>  (73) 
FragNetv2_pt2

>  <original SMILES>  (73) 
CC(=O)Nc1nc(CSCC2CCOC2)cs1

>  <original_name>  (73) 
x0416_0A-x0310_0A_16909_B1X

>  <ref_mols>  (73) 
x0416_0A,x0310_0A

>  <ref_pdb>  (73) 
x0310_0A

>  <rationale>  (73) 
FragNet: 1 round bioisosteric merging incl C1CCOC1 and CC(=O)N[Xe] replacing N#CCC(=O)N[Xe]

$$$$
x0416_0A-x0310_0A_21902_B1X
     RDKit          3D

 21 22  0  0  0  0  0  0  0  0999 V2000
   12.0740   13.8890   22.6370 C   0  0  0  0  0  0  0  0  0  0  0  0
   10.9400   13.5930   23.6290 C   0  0  0  0  0  0  0  0  0  0  0  0
   11.0410   13.9300   24.7990 O   0  0  0  0  0  0  0  0  0  0  0  0
    9.8770   12.9430   23.0560 N   0  0  0  0  0  0  0  0  0  0  0  0
    9.4550   11.6620   23.4300 C   0  0  0  0  0  0  0  0  0  0  0  0
   10.1450   10.6870   22.8040 C   0  0  0  0  0  0  0  0  0  0  0  0
    9.9030    9.2760   23.0220 C   0  0  0  0  0  0  0  0  0  0  0  0
    8.9130    8.9700   23.9150 N   0  0  0  0  0  0  0  0  0  0  0  0
    8.2380    9.9990   24.5320 C   0  0  0  0  0  0  0  0  0  0  0  0
    8.4490   11.3430   24.3380 C   0  0  0  0  0  0  0  0  0  0  0  0
    7.7070   12.3140   25.0000 N   0  0  0  0  0  0  0  0  0  0  0  0
    6.5250   12.0650   25.6470 C   0  0  0  0  0  0  0  0  0  0  0  0
    6.0360   10.9480   25.8140 O   0  0  0  0  0  0  0  0  0  0  0  0
    5.8510   13.3000   26.1880 C   0  0  0  0  0  0  0  0  0  0  0  0
    6.8800   14.3040   26.7180 C   0  0  0  0  0  0  0  0  0  0  0  0
    4.8730   13.9460   25.2100 C   0  0  0  0  0  0  0  0  0  0  0  0
    5.2520   13.1040   27.6090 C   0  0  2  0  0  0  0  0  0  0  0  0
    6.1130   12.2610   28.5180 C   0  0  0  0  0  0  0  0  0  0  0  0
    5.0660   11.9700   29.5540 C   0  0  0  0  0  0  0  0  0  0  0  0
    3.7770   12.1640   28.7610 C   0  0  0  0  0  0  0  0  0  0  0  0
    4.1350   12.6440   27.4530 O   0  0  0  0  0  0  0  0  0  0  0  0
  1  2  1  0
  2  3  2  0
  2  4  1  0
  4  5  1  0
  5  6  2  0
  6  7  1  0
  7  8  2  0
  8  9  1  0
  9 10  2  0
 10 11  1  0
 11 12  1  0
 12 13  2  0
 12 14  1  0
 14 15  1  0
 14 16  1  0
 17 14  1  6
 17 18  1  0
 18 19  1  0
 19 20  1  0
 20 21  1  0
 10  5  1  0
 21 17  1  0
A    1
 C1 
A    2
 C2 
A    3
 O1 
A    4
 N1 
A    5
 C3 
A    6
 C4 
A    7
 C5 
A    8
 N2 
A    9
 C6 
A   10
 C7 
A   11
 N3 
A   12
 C8 
A   13
 O2 
A   14
 C9 
A   15
 C10
A   16
 C11
A   17
 C12
A   18
 C13
A   19
 C14
A   20
 C15
A   21
 O3 
M  END
>  <similarity>  (74) 
1.0

>  <smiles>  (74) 
CC(=O)Nc1ccncc1NC(=O)C(C)(C)C1CCCO1

>  <cmpd_id>  (74) 
ENAMINE:Z3083627434

>  <used_subnode>  (74) 
C1CCOC1

>  <used_synthon>  (74) 
CC(=O)N[Xe]

>  <ref_subnode>  (74) 
C1CCOC1

>  <ref_synthon>  (74) 
N#CCC(=O)N[Xe]

>  <fragmentA>  (74) 
x0416_0A

>  <fragmentB>  (74) 
x0310_0A

>  <HA>  (74) 
21

>  <HBD>  (74) 
2

>  <HBA>  (74) 
4

>  <MW>  (74) 
291.158291532

>  <TPSA>  (74) 
80.32000000000001

>  <LogP>  (74) 
2.1837

>  <RBs>  (74) 
4

>  <G_bound>  (74) 
-7.136188387959775

>  <G_unbound>  (74) 
0.6223313573966672

>  <deltaG>  (74) 
-7.758519745356442

>  <comRMSD>  (74) 
0.7399581355690659

>  <substructure_overlap_check>  (74) 
True

>  <energy_ratio_check>  (74) 
True

>  <const_energy/unconst_energy>  (74) 
4.245012608448384

>  <sucos>  (74) 
0.5962472057579987

>  <interactions>  (74) 
Hydrophobic_VAL-124,HBAcceptor_SER-105,Hydrophobic_PRO-107,Hydrophobic_HIS-21

>  <total_num_ints>  (74) 
4

>  <total_num_ints_nonhyd>  (74) 
1

>  <num_uniq_frag_ints>  (74) 
2

>  <num_repl_uniq_ints>  (74) 
2

>  <num_uniq_ints_lost>  (74) 
0

>  <num_new_uniq_ints>  (74) 
2

>  <int_check>  (74) 
True

>  <tversky>  (74) 
0.32848640554292446

>  <mean_vol_overlap>  (74) 
0.5502319659047038

>  <rotat_bonds>  (74) 
4

>  <ref_url>  (74) 
https://pubs.acs.org/doi/10.1021/acs.jcim.3c00276?fig=tgr1&ref=pdf

>  <submitter_name>  (74) 
Steph Wills

>  <submitter_institution>  (74) 
University of Oxford

>  <submitter_email>  (74) 
stephanie.wills@balliol.ox.ac.uk

>  <generation_date>  (74) 
2023-11-27

>  <method>  (74) 
FragNetv2_pt2

>  <original SMILES>  (74) 
CC(=O)Nc1ccncc1NC(=O)C(C)(C)C1CCCO1

>  <original_name>  (74) 
x0416_0A-x0310_0A_21902_B1X

>  <ref_mols>  (74) 
x0416_0A,x0310_0A

>  <ref_pdb>  (74) 
x0310_0A

>  <rationale>  (74) 
FragNet: 1 round bioisosteric merging incl C1CCOC1 and CC(=O)N[Xe] replacing N#CCC(=O)N[Xe]

$$$$
x0416_0A-x0310_0A_16165_B1X
     RDKit          3D

 22 23  0  0  0  0  0  0  0  0999 V2000
    8.0020   14.3720   23.9750 O   0  0  0  0  0  0  0  0  0  0  0  0
    7.9880   13.3750   24.6700 C   0  0  0  0  0  0  0  0  0  0  0  0
    7.4810   13.3820   25.9310 O   0  0  0  0  0  0  0  0  0  0  0  0
    6.0600   13.1410   26.0250 C   0  0  0  0  0  0  0  0  0  0  0  0
    5.4980   12.0560   26.9660 C   0  0  1  0  0  0  0  0  0  0  0  0
    6.1460   11.8890   28.1880 C   0  0  0  0  0  0  0  0  0  0  0  0
    5.3230   12.3700   29.1810 C   0  0  0  0  0  0  0  0  0  0  0  0
    3.9530   12.6030   28.5660 C   0  0  0  0  0  0  0  0  0  0  0  0
    4.0930   12.3340   27.2330 O   0  0  0  0  0  0  0  0  0  0  0  0
    8.4860   12.0570   24.2470 C   0  0  0  0  0  0  0  0  0  0  0  0
    7.8840   10.9300   24.7960 C   0  0  0  0  0  0  0  0  0  0  0  0
    8.3830    9.5630   24.3630 C   0  0  0  0  0  0  0  0  0  0  0  0
    9.4950    9.5030   23.3720 C   0  0  0  0  0  0  0  0  0  0  0  0
    9.9920   10.6350   22.9170 C   0  0  0  0  0  0  0  0  0  0  0  0
    9.5480   11.8750   23.3040 C   0  0  0  0  0  0  0  0  0  0  0  0
   10.1800   12.8960   22.7430 N   0  0  0  0  0  0  0  0  0  0  0  0
   11.1060   13.7040   23.5090 C   0  0  0  0  0  0  0  0  0  0  0  0
   10.9090   14.0240   24.8850 O   0  0  0  0  0  0  0  0  0  0  0  0
   12.3310   14.1960   22.7520 C   0  0  0  0  0  0  0  0  0  0  0  0
   12.2470   15.5100   22.4740 F   0  0  0  0  0  0  0  0  0  0  0  0
   12.5630   13.5570   21.5830 F   0  0  0  0  0  0  0  0  0  0  0  0
   13.4510   14.0430   23.5080 F   0  0  0  0  0  0  0  0  0  0  0  0
  1  2  2  0
  2  3  1  0
  3  4  1  0
  5  4  1  1
  5  6  1  0
  6  7  1  0
  7  8  1  0
  8  9  1  0
  2 10  1  0
 10 11  2  0
 11 12  1  0
 12 13  2  0
 13 14  1  0
 14 15  2  0
 15 16  1  0
 16 17  1  0
 17 18  2  0
 17 19  1  0
 19 20  1  0
 19 21  1  0
 19 22  1  0
  9  5  1  0
 15 10  1  0
A    1
 O1 
A    2
 C1 
A    3
 O2 
A    4
 C2 
A    5
 C3 
A    6
 C4 
A    7
 C5 
A    8
 C6 
A    9
 O3 
A   10
 C7 
A   11
 C8 
A   12
 C9 
A   13
 C10
A   14
 C11
A   15
 C12
A   16
 N1 
A   17
 C13
A   18
 O4 
A   19
 C14
A   20
 F1 
A   21
 F2 
A   22
 F3 
M  END
>  <similarity>  (75) 
1.0

>  <smiles>  (75) 
O=C(OCC1CCCO1)c1ccccc1NC(=O)C(F)(F)F

>  <cmpd_id>  (75) 
ENAMINE:Z1639121471

>  <used_subnode>  (75) 
C1CCOC1

>  <used_synthon>  (75) 
O=C(N[Xe])C(F)(F)F

>  <ref_subnode>  (75) 
C1CCOC1

>  <ref_synthon>  (75) 
N#CCC(=O)N[Xe]

>  <fragmentA>  (75) 
x0416_0A

>  <fragmentB>  (75) 
x0310_0A

>  <HA>  (75) 
22

>  <HBD>  (75) 
1

>  <HBA>  (75) 
4

>  <MW>  (75) 
317.087492588

>  <TPSA>  (75) 
64.63

>  <LogP>  (75) 
2.5232

>  <RBs>  (75) 
4

>  <G_bound>  (75) 
-4.043522605802442

>  <G_unbound>  (75) 
4.542982832665547

>  <deltaG>  (75) 
-8.586505438467988

>  <comRMSD>  (75) 
0.5119114537696687

>  <substructure_overlap_check>  (75) 
True

>  <energy_ratio_check>  (75) 
True

>  <const_energy/unconst_energy>  (75) 
4.458965325451807

>  <sucos>  (75) 
0.6121242857232386

>  <interactions>  (75) 
HBDonor_SER-125,Hydrophobic_VAL-124,Hydrophobic_PRO-107

>  <total_num_ints>  (75) 
3

>  <total_num_ints_nonhyd>  (75) 
1

>  <num_uniq_frag_ints>  (75) 
2

>  <num_repl_uniq_ints>  (75) 
2

>  <num_uniq_ints_lost>  (75) 
0

>  <num_new_uniq_ints>  (75) 
1

>  <int_check>  (75) 
True

>  <tversky>  (75) 
0.2855292486789075

>  <mean_vol_overlap>  (75) 
0.5510824048097196

>  <rotat_bonds>  (75) 
4

>  <ref_url>  (75) 
https://pubs.acs.org/doi/10.1021/acs.jcim.3c00276?fig=tgr1&ref=pdf

>  <submitter_name>  (75) 
Steph Wills

>  <submitter_institution>  (75) 
University of Oxford

>  <submitter_email>  (75) 
stephanie.wills@balliol.ox.ac.uk

>  <generation_date>  (75) 
2023-11-27

>  <method>  (75) 
FragNetv2_pt2

>  <original SMILES>  (75) 
O=C(OCC1CCCO1)c1ccccc1NC(=O)C(F)(F)F

>  <original_name>  (75) 
x0416_0A-x0310_0A_16165_B1X

>  <ref_mols>  (75) 
x0416_0A,x0310_0A

>  <ref_pdb>  (75) 
x0310_0A

>  <rationale>  (75) 
FragNet: 1 round bioisosteric merging incl C1CCOC1 and O=C(N[Xe])C(F)(F)F replacing N#CCC(=O)N[Xe]

$$$$
x0416_0A-x0310_0A_18808_B1X
     RDKit          3D

 21 22  0  0  0  0  0  0  0  0999 V2000
   10.9260   14.3770   21.1660 C   0  0  0  0  0  0  0  0  0  0  0  0
   11.7140   13.8080   22.3430 C   0  0  1  0  0  0  0  0  0  0  0  0
   12.4160   14.9210   23.1040 C   0  0  0  0  0  0  0  0  0  0  0  0
   12.0510   16.2170   22.5940 N   0  0  0  0  0  0  0  0  0  0  0  0
   10.7990   13.0210   23.2830 C   0  0  0  0  0  0  0  0  0  0  0  0
   10.5420   13.3650   24.4310 O   0  0  0  0  0  0  0  0  0  0  0  0
   10.2820   11.8740   22.7030 N   0  0  0  0  0  0  0  0  0  0  0  0
    9.7400   10.7640   23.4050 C   0  0  0  0  0  0  0  0  0  0  0  0
    8.9110   11.0160   24.4970 C   0  0  0  0  0  0  0  0  0  0  0  0
    7.6860   11.7650   24.3270 N   0  0  0  0  0  0  0  0  0  0  0  0
    7.8220   13.0780   23.7010 C   0  0  0  0  0  0  0  0  0  0  0  0
    6.7770   11.3920   25.2930 C   0  0  0  0  0  0  0  0  0  0  0  0
    6.6120   10.2080   25.5730 O   0  0  0  0  0  0  0  0  0  0  0  0
    6.0570   12.3960   25.9330 C   0  0  0  0  0  0  0  0  0  0  0  0
    5.4000   11.9270   27.0660 C   0  0  1  0  0  0  0  0  0  0  0  0
    6.1750   11.9570   28.3280 C   0  0  0  0  0  0  0  0  0  0  0  0
    5.2440   12.5700   29.3590 C   0  0  0  0  0  0  0  0  0  0  0  0
    3.9680   12.6660   28.5460 C   0  0  0  0  0  0  0  0  0  0  0  0
    4.2700   12.4070   27.1460 O   0  0  0  0  0  0  0  0  0  0  0  0
    9.4350    9.5800   22.6770 C   0  0  0  0  0  0  0  0  0  0  0  0
   10.5600    9.2840   23.3610 C   0  0  0  0  0  0  0  0  0  0  0  0
  2  1  1  6
  2  3  1  0
  3  4  3  0
  2  5  1  0
  5  6  2  0
  5  7  1  0
  7  8  1  0
  8  9  1  0
  9 10  1  0
 10 11  1  0
 10 12  1  0
 12 13  2  0
 12 14  1  0
 15 14  1  6
 15 16  1  0
 16 17  1  0
 17 18  1  0
 18 19  1  0
  8 20  1  0
 20 21  1  0
 21  8  1  0
 19 15  1  0
A    1
 C1 
A    2
 C2 
A    3
 C3 
A    4
 N1 
A    5
 C4 
A    6
 O1 
A    7
 N2 
A    8
 C5 
A    9
 C6 
A   10
 N3 
A   11
 C7 
A   12
 C8 
A   13
 O2 
A   14
 C9 
A   15
 C10
A   16
 C11
A   17
 C12
A   18
 C13
A   19
 O3 
A   20
 C14
A   21
 C15
M  END
>  <similarity>  (76) 
1.0

>  <smiles>  (76) 
CC(C#N)C(=O)NC1(CN(C)C(=O)CC2CCCO2)CC1

>  <cmpd_id>  (76) 
ENAMINE:PV-003517486233

>  <used_subnode>  (76) 
C1CCOC1

>  <used_synthon>  (76) 
CC(C#N)C(=O)N[Xe]

>  <ref_subnode>  (76) 
C1CCOC1

>  <ref_synthon>  (76) 
N#CCC(=O)N[Xe]

>  <fragmentA>  (76) 
x0416_0A

>  <fragmentB>  (76) 
x0310_0A

>  <HA>  (76) 
21

>  <HBD>  (76) 
1

>  <HBA>  (76) 
4

>  <MW>  (76) 
293.173941596

>  <TPSA>  (76) 
82.43

>  <LogP>  (76) 
0.8223799999999994

>  <RBs>  (76) 
6

>  <G_bound>  (76) 
-4.786925298164055

>  <G_unbound>  (76) 
1.201165467985514

>  <deltaG>  (76) 
-5.988090766149569

>  <comRMSD>  (76) 
0.3120972809732097

>  <substructure_overlap_check>  (76) 
True

>  <energy_ratio_check>  (76) 
True

>  <const_energy/unconst_energy>  (76) 
2.2708996629417735

>  <sucos>  (76) 
0.6186786423447398

>  <interactions>  (76) 
Hydrophobic_CYS-110,HBDonor_SER-125,Hydrophobic_TYR-90,Hydrophobic_VAL-124,Hydrophobic_PRO-107,Hydrophobic_HIS-21

>  <total_num_ints>  (76) 
6

>  <total_num_ints_nonhyd>  (76) 
1

>  <num_uniq_frag_ints>  (76) 
2

>  <num_repl_uniq_ints>  (76) 
2

>  <num_uniq_ints_lost>  (76) 
0

>  <num_new_uniq_ints>  (76) 
4

>  <int_check>  (76) 
True

>  <tversky>  (76) 
0.30892950599413044

>  <mean_vol_overlap>  (76) 
0.5577432310954832

>  <rotat_bonds>  (76) 
6

>  <ref_url>  (76) 
https://pubs.acs.org/doi/10.1021/acs.jcim.3c00276?fig=tgr1&ref=pdf

>  <submitter_name>  (76) 
Steph Wills

>  <submitter_institution>  (76) 
University of Oxford

>  <submitter_email>  (76) 
stephanie.wills@balliol.ox.ac.uk

>  <generation_date>  (76) 
2023-11-27

>  <method>  (76) 
FragNetv2_pt2

>  <original SMILES>  (76) 
CC(C#N)C(=O)NC1(CN(C)C(=O)CC2CCCO2)CC1

>  <original_name>  (76) 
x0416_0A-x0310_0A_18808_B1X

>  <ref_mols>  (76) 
x0416_0A,x0310_0A

>  <ref_pdb>  (76) 
x0310_0A

>  <rationale>  (76) 
FragNet: 1 round bioisosteric merging incl C1CCOC1 and CC(C#N)C(=O)N[Xe] replacing N#CCC(=O)N[Xe]

$$$$
x0416_0A-x0310_0A_155168_B1X
     RDKit          3D

 20 21  0  0  0  0  0  0  0  0999 V2000
   10.0750    9.2510   22.9020 C   0  0  0  0  0  0  0  0  0  0  0  0
    9.1720   10.1720   23.7100 C   0  0  0  0  0  0  0  0  0  0  0  0
    8.2180    9.5830   24.4550 N   0  0  0  0  0  0  0  0  0  0  0  0
    7.3870   10.3860   25.1690 C   0  0  0  0  0  0  0  0  0  0  0  0
    7.5070   11.9000   25.1390 C   0  0  0  0  0  0  0  0  0  0  0  0
    6.5380   12.7650   25.9370 C   0  0  0  0  0  0  0  0  0  0  0  0
    6.5790   14.2450   25.5960 C   0  0  0  0  0  0  0  0  0  0  0  0
    5.7220   15.1080   26.2660 C   0  0  0  0  0  0  0  0  0  0  0  0
    4.7680   14.5440   27.3230 C   0  0  0  0  0  0  0  0  0  0  0  0
    4.7980   13.1620   27.5780 C   0  0  0  0  0  0  0  0  0  0  0  0
    5.6560   12.2840   26.9100 C   0  0  0  0  0  0  0  0  0  0  0  0
    8.5300   12.4040   24.3490 C   0  0  0  0  0  0  0  0  0  0  0  0
    9.3610   11.5420   23.6400 C   0  0  0  0  0  0  0  0  0  0  0  0
   10.4260   12.0280   22.8270 N   0  0  0  0  0  0  0  0  0  0  0  0
   11.0410   13.1980   23.1430 C   0  0  0  0  0  0  0  0  0  0  0  0
   11.1870   13.6150   24.2890 O   0  0  0  0  0  0  0  0  0  0  0  0
   11.5270   13.9890   21.9480 C   0  0  1  0  0  0  0  0  0  0  0  0
   10.4250   14.3490   20.9370 C   0  0  0  0  0  0  0  0  0  0  0  0
   11.9630   15.2990   22.5180 C   0  0  0  0  0  0  0  0  0  0  0  0
   12.1510   16.2990   22.9860 N   0  0  0  0  0  0  0  0  0  0  0  0
  1  2  1  0
  2  3  2  0
  3  4  1  0
  4  5  2  0
  5  6  1  0
  6  7  2  0
  7  8  1  0
  8  9  2  0
  9 10  1  0
 10 11  2  0
  5 12  1  0
 12 13  2  0
 13 14  1  0
 14 15  1  0
 15 16  2  0
 15 17  1  0
 17 18  1  6
 17 19  1  0
 19 20  3  0
 13  2  1  0
 11  6  1  0
A    1
 C1 
A    2
 C2 
A    3
 N1 
A    4
 C3 
A    5
 C4 
A    6
 C5 
A    7
 C6 
A    8
 C7 
A    9
 C8 
A   10
 C9 
A   11
 C10
A   12
 C11
A   13
 C12
A   14
 N2 
A   15
 C13
A   16
 O1 
A   17
 C14
A   18
 C15
A   19
 C16
A   20
 N3 
M  END
>  <similarity>  (77) 
1.0

>  <smiles>  (77) 
Cc1ncc(-c2ccccc2)cc1NC(=O)C(C)C#N

>  <cmpd_id>  (77) 
ENAMINE:Z1539846561

>  <used_subnode>  (77) 
c1ccncc1

>  <used_synthon>  (77) 
CC(C#N)C(=O)N[Xe]

>  <ref_subnode>  (77) 
c1ccncc1

>  <ref_synthon>  (77) 
N#CCC(=O)N[Xe]

>  <fragmentA>  (77) 
x0416_0A

>  <fragmentB>  (77) 
x0310_0A

>  <HA>  (77) 
20

>  <HBD>  (77) 
1

>  <HBA>  (77) 
3

>  <MW>  (77) 
265.1215121

>  <TPSA>  (77) 
65.78

>  <LogP>  (77) 
3.1552000000000007

>  <RBs>  (77) 
3

>  <G_bound>  (77) 
-9.284774526772692

>  <G_unbound>  (77) 
0.22701539943697907

>  <deltaG>  (77) 
-9.511789926209671

>  <comRMSD>  (77) 
0.4176036630860278

>  <substructure_overlap_check>  (77) 
True

>  <energy_ratio_check>  (77) 
True

>  <const_energy/unconst_energy>  (77) 
5.013667732318398

>  <sucos>  (77) 
0.6192317786346737

>  <interactions>  (77) 
Hydrophobic_THR-126,Hydrophobic_TYR-90,Hydrophobic_VAL-124,HBAcceptor_SER-105,Hydrophobic_PRO-107,Hydrophobic_HIS-21

>  <total_num_ints>  (77) 
6

>  <total_num_ints_nonhyd>  (77) 
1

>  <num_uniq_frag_ints>  (77) 
2

>  <num_repl_uniq_ints>  (77) 
2

>  <num_uniq_ints_lost>  (77) 
0

>  <num_new_uniq_ints>  (77) 
4

>  <int_check>  (77) 
True

>  <tversky>  (77) 
0.34172210552135973

>  <mean_vol_overlap>  (77) 
0.561932411538863

>  <rotat_bonds>  (77) 
3

>  <ref_url>  (77) 
https://pubs.acs.org/doi/10.1021/acs.jcim.3c00276?fig=tgr1&ref=pdf

>  <submitter_name>  (77) 
Steph Wills

>  <submitter_institution>  (77) 
University of Oxford

>  <submitter_email>  (77) 
stephanie.wills@balliol.ox.ac.uk

>  <generation_date>  (77) 
2023-11-27

>  <method>  (77) 
FragNetv2_pt2

>  <original SMILES>  (77) 
Cc1ncc(-c2ccccc2)cc1NC(=O)C(C)C#N

>  <original_name>  (77) 
x0416_0A-x0310_0A_155168_B1X

>  <ref_mols>  (77) 
x0416_0A,x0310_0A

>  <ref_pdb>  (77) 
x0310_0A

>  <rationale>  (77) 
FragNet: 1 round bioisosteric merging incl c1ccncc1 and CC(C#N)C(=O)N[Xe] replacing N#CCC(=O)N[Xe]

$$$$
x0416_0A-x0310_0A_165885_B1X
     RDKit          3D

 20 21  0  0  0  0  0  0  0  0999 V2000
   10.1360    9.2450   22.8240 C   0  0  0  0  0  0  0  0  0  0  0  0
    9.2860   10.2030   23.6060 C   0  0  0  0  0  0  0  0  0  0  0  0
    8.3030    9.6340   24.3530 N   0  0  0  0  0  0  0  0  0  0  0  0
    7.4380   10.4510   25.1130 C   0  0  0  0  0  0  0  0  0  0  0  0
    7.5520   11.8250   25.1180 C   0  0  0  0  0  0  0  0  0  0  0  0
    6.6720   12.5860   25.8580 C   0  0  0  0  0  0  0  0  0  0  0  0
    6.6270   14.0710   25.5560 C   0  0  0  0  0  0  0  0  0  0  0  0
    5.6590   14.9640   26.3450 C   0  0  0  0  0  0  0  0  0  0  0  0
    4.8160   14.2300   27.3850 C   0  0  0  0  0  0  0  0  0  0  0  0
    4.9590   12.7090   27.5960 C   0  0  0  0  0  0  0  0  0  0  0  0
    5.8600   11.9830   26.8380 C   0  0  0  0  0  0  0  0  0  0  0  0
    8.5830   12.3820   24.3450 C   0  0  0  0  0  0  0  0  0  0  0  0
    9.4500   11.5820   23.5960 C   0  0  0  0  0  0  0  0  0  0  0  0
   10.4760   12.2850   22.8560 N   0  0  0  0  0  0  0  0  0  0  0  0
   11.0220   13.3950   23.4880 C   0  0  0  0  0  0  0  0  0  0  0  0
   10.6850   13.7280   24.6190 O   0  0  0  0  0  0  0  0  0  0  0  0
   12.0780   14.2170   22.7540 C   0  0  0  0  0  0  0  0  0  0  0  0
   11.7120   15.4980   22.5360 F   0  0  0  0  0  0  0  0  0  0  0  0
   12.3640   13.7180   21.5260 F   0  0  0  0  0  0  0  0  0  0  0  0
   13.2250   14.2890   23.4710 F   0  0  0  0  0  0  0  0  0  0  0  0
  1  2  1  0
  2  3  2  0
  3  4  1  0
  4  5  2  0
  5  6  1  0
  6  7  2  0
  7  8  1  0
  8  9  2  0
  9 10  1  0
 10 11  2  0
  5 12  1  0
 12 13  2  0
 13 14  1  0
 14 15  1  0
 15 16  2  0
 15 17  1  0
 17 18  1  0
 17 19  1  0
 17 20  1  0
 13  2  1  0
 11  6  1  0
A    1
 C1 
A    2
 C2 
A    3
 N1 
A    4
 C3 
A    5
 C4 
A    6
 C5 
A    7
 C6 
A    8
 C7 
A    9
 C8 
A   10
 C9 
A   11
 C10
A   12
 C11
A   13
 C12
A   14
 N2 
A   15
 C13
A   16
 O1 
A   17
 C14
A   18
 F1 
A   19
 F2 
A   20
 F3 
M  END
>  <similarity>  (78) 
1.0

>  <smiles>  (78) 
Cc1ncc(-c2ccccc2)cc1NC(=O)C(F)(F)F

>  <cmpd_id>  (78) 
ENAMINE:Z1539842980

>  <used_subnode>  (78) 
c1ccncc1

>  <used_synthon>  (78) 
O=C(N[Xe])C(F)(F)F

>  <ref_subnode>  (78) 
c1ccncc1

>  <ref_synthon>  (78) 
N#CCC(=O)N[Xe]

>  <fragmentA>  (78) 
x0416_0A

>  <fragmentB>  (78) 
x0310_0A

>  <HA>  (78) 
20

>  <HBD>  (78) 
1

>  <HBA>  (78) 
2

>  <MW>  (78) 
280.082347632

>  <TPSA>  (78) 
41.99

>  <LogP>  (78) 
3.5578200000000013

>  <RBs>  (78) 
2

>  <G_bound>  (78) 
-7.731514793663087

>  <G_unbound>  (78) 
0.24721213601896874

>  <deltaG>  (78) 
-7.978726929682056

>  <comRMSD>  (78) 
0.4528047797114921

>  <substructure_overlap_check>  (78) 
True

>  <energy_ratio_check>  (78) 
True

>  <const_energy/unconst_energy>  (78) 
3.601977399215398

>  <sucos>  (78) 
0.6268902722755605

>  <interactions>  (78) 
HBDonor_SER-125,Hydrophobic_VAL-124,HBAcceptor_SER-105,Hydrophobic_PRO-107

>  <total_num_ints>  (78) 
4

>  <total_num_ints_nonhyd>  (78) 
2

>  <num_uniq_frag_ints>  (78) 
2

>  <num_repl_uniq_ints>  (78) 
2

>  <num_uniq_ints_lost>  (78) 
0

>  <num_new_uniq_ints>  (78) 
2

>  <int_check>  (78) 
True

>  <tversky>  (78) 
0.3235272589420912

>  <mean_vol_overlap>  (78) 
0.5837284443949986

>  <rotat_bonds>  (78) 
2

>  <ref_url>  (78) 
https://pubs.acs.org/doi/10.1021/acs.jcim.3c00276?fig=tgr1&ref=pdf

>  <submitter_name>  (78) 
Steph Wills

>  <submitter_institution>  (78) 
University of Oxford

>  <submitter_email>  (78) 
stephanie.wills@balliol.ox.ac.uk

>  <generation_date>  (78) 
2023-11-27

>  <method>  (78) 
FragNetv2_pt2

>  <original SMILES>  (78) 
Cc1ncc(-c2ccccc2)cc1NC(=O)C(F)(F)F

>  <original_name>  (78) 
x0416_0A-x0310_0A_165885_B1X

>  <ref_mols>  (78) 
x0416_0A,x0310_0A

>  <ref_pdb>  (78) 
x0310_0A

>  <rationale>  (78) 
FragNet: 1 round bioisosteric merging incl c1ccncc1 and O=C(N[Xe])C(F)(F)F replacing N#CCC(=O)N[Xe]

$$$$
x0416_0A-x0310_0A_21563_B1X
     RDKit          3D

 20 21  0  0  0  0  0  0  0  0999 V2000
   12.2020   13.9330   21.3740 C   0  0  0  0  0  0  0  0  0  0  0  0
   12.2230   13.7360   22.8640 C   0  0  1  0  0  0  0  0  0  0  0  0
   12.3760   15.1340   23.4720 C   0  0  0  0  0  0  0  0  0  0  0  0
   12.0410   16.1240   22.6090 N   0  0  0  0  0  0  0  0  0  0  0  0
   10.9420   13.0550   23.4580 C   0  0  0  0  0  0  0  0  0  0  0  0
   10.4690   13.3730   24.5370 O   0  0  0  0  0  0  0  0  0  0  0  0
   10.4220   12.0780   22.6490 N   0  0  0  0  0  0  0  0  0  0  0  0
    9.4480   11.0290   22.9550 C   0  0  0  0  0  0  0  0  0  0  0  0
    8.6810   11.1410   24.2620 C   0  0  0  0  0  0  0  0  0  0  0  0
    7.8920   12.4690   24.4620 C   0  0  0  0  0  0  0  0  0  0  0  0
    6.8410   12.4720   25.4260 N   0  0  0  0  0  0  0  0  0  0  0  0
    6.3660   11.3010   25.9900 C   0  0  0  0  0  0  0  0  0  0  0  0
    6.5940   10.1820   25.5720 O   0  0  0  0  0  0  0  0  0  0  0  0
    5.4900   11.4360   27.2560 C   0  0  1  0  0  0  0  0  0  0  0  0
    6.2690   12.0120   28.4220 C   0  0  0  0  0  0  0  0  0  0  0  0
    5.2370   12.7690   29.2490 C   0  0  0  0  0  0  0  0  0  0  0  0
    3.9230   12.7180   28.4480 C   0  0  0  0  0  0  0  0  0  0  0  0
    4.2980   12.2520   27.1350 O   0  0  0  0  0  0  0  0  0  0  0  0
    9.8250    9.6390   22.5920 C   0  0  0  0  0  0  0  0  0  0  0  0
    9.6050    9.7570   23.7900 C   0  0  0  0  0  0  0  0  0  0  0  0
  2  1  1  6
  2  3  1  0
  3  4  3  0
  2  5  1  0
  5  6  2  0
  5  7  1  0
  7  8  1  0
  8  9  1  0
  9 10  1  0
 10 11  1  0
 11 12  1  0
 12 13  2  0
 14 12  1  6
 14 15  1  0
 15 16  1  0
 16 17  1  0
 17 18  1  0
  8 19  1  0
 19 20  1  0
 20  8  1  0
 18 14  1  0
A    1
 C1 
A    2
 C2 
A    3
 C3 
A    4
 N1 
A    5
 C4 
A    6
 O1 
A    7
 N2 
A    8
 C5 
A    9
 C6 
A   10
 C7 
A   11
 N3 
A   12
 C8 
A   13
 O2 
A   14
 C9 
A   15
 C10
A   16
 C11
A   17
 C12
A   18
 O3 
A   19
 C13
A   20
 C14
M  END
>  <similarity>  (79) 
1.0

>  <smiles>  (79) 
CC(C#N)C(=O)NC1(CCNC(=O)C2CCCO2)CC1

>  <cmpd_id>  (79) 
ENAMINE:PV-003328854133

>  <used_subnode>  (79) 
C1CCOC1

>  <used_synthon>  (79) 
CC(C#N)C(=O)N[Xe]

>  <ref_subnode>  (79) 
C1CCOC1

>  <ref_synthon>  (79) 
N#CCC(=O)N[Xe]

>  <fragmentA>  (79) 
x0416_0A

>  <fragmentB>  (79) 
x0310_0A

>  <HA>  (79) 
20

>  <HBD>  (79) 
2

>  <HBA>  (79) 
4

>  <MW>  (79) 
279.158291532

>  <TPSA>  (79) 
91.22000000000001

>  <LogP>  (79) 
0.4801799999999996

>  <RBs>  (79) 
6

>  <G_bound>  (79) 
-2.9848700889619826

>  <G_unbound>  (79) 
1.209451699173851

>  <deltaG>  (79) 
-4.1943217881358335

>  <comRMSD>  (79) 
0.45474881387729676

>  <substructure_overlap_check>  (79) 
True

>  <energy_ratio_check>  (79) 
True

>  <const_energy/unconst_energy>  (79) 
3.735796937382606

>  <sucos>  (79) 
0.6276198476312561

>  <interactions>  (79) 
HBDonor_SER-125,Hydrophobic_TYR-90,Hydrophobic_VAL-124,Hydrophobic_PRO-107,Hydrophobic_HIS-21

>  <total_num_ints>  (79) 
5

>  <total_num_ints_nonhyd>  (79) 
1

>  <num_uniq_frag_ints>  (79) 
2

>  <num_repl_uniq_ints>  (79) 
2

>  <num_uniq_ints_lost>  (79) 
0

>  <num_new_uniq_ints>  (79) 
3

>  <int_check>  (79) 
True

>  <tversky>  (79) 
0.34041973758569455

>  <mean_vol_overlap>  (79) 
0.5735939801610226

>  <rotat_bonds>  (79) 
6

>  <ref_url>  (79) 
https://pubs.acs.org/doi/10.1021/acs.jcim.3c00276?fig=tgr1&ref=pdf

>  <submitter_name>  (79) 
Steph Wills

>  <submitter_institution>  (79) 
University of Oxford

>  <submitter_email>  (79) 
stephanie.wills@balliol.ox.ac.uk

>  <generation_date>  (79) 
2023-11-27

>  <method>  (79) 
FragNetv2_pt2

>  <original SMILES>  (79) 
CC(C#N)C(=O)NC1(CCNC(=O)C2CCCO2)CC1

>  <original_name>  (79) 
x0416_0A-x0310_0A_21563_B1X

>  <ref_mols>  (79) 
x0416_0A,x0310_0A

>  <ref_pdb>  (79) 
x0310_0A

>  <rationale>  (79) 
FragNet: 1 round bioisosteric merging incl C1CCOC1 and CC(C#N)C(=O)N[Xe] replacing N#CCC(=O)N[Xe]

$$$$
x0416_0A-x0310_0A_15489_B1X
     RDKit          3D

 19 20  0  0  0  0  0  0  0  0999 V2000
   12.2090   14.1660   22.6240 C   0  0  0  0  0  0  0  0  0  0  0  0
   11.1280   13.3890   23.3490 C   0  0  0  0  0  0  0  0  0  0  0  0
   10.8490   13.6670   24.5110 O   0  0  0  0  0  0  0  0  0  0  0  0
   10.5550   12.4290   22.6020 N   0  0  0  0  0  0  0  0  0  0  0  0
    9.8200   11.5120   23.2230 C   0  0  0  0  0  0  0  0  0  0  0  0
    8.9070   11.9750   24.0810 N   0  0  0  0  0  0  0  0  0  0  0  0
    8.1890   11.0460   24.6820 C   0  0  0  0  0  0  0  0  0  0  0  0
    7.2380   11.3240   25.5630 C   0  0  0  0  0  0  0  0  0  0  0  0
    6.7350   10.4440   26.2470 O   0  0  0  0  0  0  0  0  0  0  0  0
    6.8660   12.6200   25.6560 N   0  0  0  0  0  0  0  0  0  0  0  0
    7.1490   13.5990   24.5940 C   0  0  0  0  0  0  0  0  0  0  0  0
    5.6230   12.8650   26.1510 C   0  0  0  0  0  0  0  0  0  0  0  0
    5.1080   11.9330   27.0390 C   0  0  1  0  0  0  0  0  0  0  0  0
    6.0080   11.8820   28.2700 C   0  0  0  0  0  0  0  0  0  0  0  0
    5.2720   12.4330   29.4540 C   0  0  0  0  0  0  0  0  0  0  0  0
    3.8680   12.7210   28.9310 C   0  0  0  0  0  0  0  0  0  0  0  0
    3.8000   12.2960   27.5410 O   0  0  0  0  0  0  0  0  0  0  0  0
    8.6390    9.6830   24.1930 C   0  0  0  0  0  0  0  0  0  0  0  0
    9.9020    9.7880   23.0540 S   0  0  0  0  0  0  0  0  0  0  0  0
  1  2  1  0
  2  3  2  0
  2  4  1  0
  4  5  1  0
  5  6  2  0
  6  7  1  0
  7  8  1  0
  8  9  2  0
  8 10  1  0
 10 11  1  0
 10 12  1  0
 13 12  1  6
 13 14  1  0
 14 15  1  0
 15 16  1  0
 16 17  1  0
  7 18  2  0
 18 19  1  0
 19  5  1  0
 17 13  1  0
A    1
 C1 
A    2
 C2 
A    3
 O1 
A    4
 N1 
A    5
 C3 
A    6
 N2 
A    7
 C4 
A    8
 C5 
A    9
 O2 
A   10
 N3 
A   11
 C6 
A   12
 C7 
A   13
 C8 
A   14
 C9 
A   15
 C10
A   16
 C11
A   17
 O3 
A   18
 C12
A   19
 S1 
M  END
>  <similarity>  (80) 
1.0

>  <smiles>  (80) 
CC(=O)Nc1nc(C(=O)N(C)CC2CCCO2)cs1

>  <cmpd_id>  (80) 
ENAMINE:Z1680196458

>  <used_subnode>  (80) 
C1CCOC1

>  <used_synthon>  (80) 
CC(=O)N[Xe]

>  <ref_subnode>  (80) 
C1CCOC1

>  <ref_synthon>  (80) 
N#CCC(=O)N[Xe]

>  <fragmentA>  (80) 
x0416_0A

>  <fragmentB>  (80) 
x0310_0A

>  <HA>  (80) 
19

>  <HBD>  (80) 
1

>  <HBA>  (80) 
5

>  <MW>  (80) 
283.09906240400005

>  <TPSA>  (80) 
71.53

>  <LogP>  (80) 
1.3524999999999996

>  <RBs>  (80) 
4

>  <G_bound>  (80) 
-8.627372408393903

>  <G_unbound>  (80) 
0.5331997355904519

>  <deltaG>  (80) 
-9.160572143984355

>  <comRMSD>  (80) 
0.37657986292860357

>  <substructure_overlap_check>  (80) 
True

>  <energy_ratio_check>  (80) 
True

>  <const_energy/unconst_energy>  (80) 
4.092547707572857

>  <sucos>  (80) 
0.6647965485392624

>  <interactions>  (80) 
HBDonor_SER-125,Hydrophobic_VAL-124,Hydrophobic_PRO-107,Hydrophobic_HIS-21

>  <total_num_ints>  (80) 
4

>  <total_num_ints_nonhyd>  (80) 
1

>  <num_uniq_frag_ints>  (80) 
2

>  <num_repl_uniq_ints>  (80) 
2

>  <num_uniq_ints_lost>  (80) 
0

>  <num_new_uniq_ints>  (80) 
2

>  <int_check>  (80) 
True

>  <tversky>  (80) 
0.31759815906525074

>  <mean_vol_overlap>  (80) 
0.6115264785979333

>  <rotat_bonds>  (80) 
4

>  <ref_url>  (80) 
https://pubs.acs.org/doi/10.1021/acs.jcim.3c00276?fig=tgr1&ref=pdf

>  <submitter_name>  (80) 
Steph Wills

>  <submitter_institution>  (80) 
University of Oxford

>  <submitter_email>  (80) 
stephanie.wills@balliol.ox.ac.uk

>  <generation_date>  (80) 
2023-11-27

>  <method>  (80) 
FragNetv2_pt2

>  <original SMILES>  (80) 
CC(=O)Nc1nc(C(=O)N(C)CC2CCCO2)cs1

>  <original_name>  (80) 
x0416_0A-x0310_0A_15489_B1X

>  <ref_mols>  (80) 
x0416_0A,x0310_0A

>  <ref_pdb>  (80) 
x0310_0A

>  <rationale>  (80) 
FragNet: 1 round bioisosteric merging incl C1CCOC1 and CC(=O)N[Xe] replacing N#CCC(=O)N[Xe]

$$$$
