ver_1.2
     RDKit          2D

  0  0  0  0  0  0  0  0  0  0999 V2000
M  END
>  <ref_url>  (1) 
https://pubs.acs.org/doi/10.1021/acs.jcim.3c00276?fig=tgr1&ref=pdf

>  <submitter_name>  (1) 
Steph Wills

>  <submitter_institution>  (1) 
University of Oxford

>  <submitter_email>  (1) 
stephanie.wills@balliol.ox.ac.uk

>  <generation_date>  (1) 
2023-11-23

>  <method>  (1) 
FragNetv2

>  <original SMILES>  (1) 
SMILES

>  <original_name>  (1) 
a name

>  <ref_mols>  (1) 
ref fragments

>  <ref_pdb>  (1) 
ref pdb

$$$$
x0556_0A-x0310_0A_6122_B1X
     RDKit          3D

 22 23  0  0  0  0  0  0  0  0999 V2000
   10.9410    9.3860   23.3350 C   0  0  0  0  0  0  0  0  0  0  0  0
    9.5510    9.0970   23.6530 C   0  0  0  0  0  0  0  0  0  0  0  0
    9.2870    8.5020   22.3950 C   0  0  0  0  0  0  0  0  0  0  0  0
    8.8350   10.2750   24.0610 N   0  0  0  0  0  0  0  0  0  0  0  0
    7.8040   10.1330   24.9450 N   0  0  0  0  0  0  0  0  0  0  0  0
    7.2900   11.3610   25.1960 C   0  0  0  0  0  0  0  0  0  0  0  0
    6.1060   11.5830   26.1590 C   0  0  0  0  0  0  0  0  0  0  0  0
    5.7580   10.4410   27.1100 C   0  0  0  0  0  0  0  0  0  0  0  0
    4.5940   10.6200   28.0800 C   0  0  0  0  0  0  0  0  0  0  0  0
    3.8950   11.9820   27.9690 C   0  0  0  0  0  0  0  0  0  0  0  0
    4.3280   12.9310   27.0460 C   0  0  0  0  0  0  0  0  0  0  0  0
    5.3700   12.7730   26.1770 C   0  0  0  0  0  0  0  0  0  0  0  0
    7.9910   12.3500   24.4610 C   0  0  0  0  0  0  0  0  0  0  0  0
    9.0310   11.5630   23.7120 C   0  0  0  0  0  0  0  0  0  0  0  0
    9.8700   12.2950   22.9230 N   0  0  0  0  0  0  0  0  0  0  0  0
   10.7660   13.1700   23.4830 C   0  0  0  0  0  0  0  0  0  0  0  0
   10.7480   13.4820   24.6600 O   0  0  0  0  0  0  0  0  0  0  0  0
   11.6640   13.6580   22.5590 C   0  0  0  0  0  0  0  0  0  0  0  0
   12.2560   14.7890   23.1290 C   0  0  0  0  0  0  0  0  0  0  0  0
   12.1030   15.9820   22.2310 C   0  0  0  0  0  0  0  0  0  0  0  0
   11.7130   15.0890   24.3290 F   0  0  0  0  0  0  0  0  0  0  0  0
   13.5650   14.5670   23.3280 F   0  0  0  0  0  0  0  0  0  0  0  0
  1  2  1  0
  2  3  1  0
  2  4  1  0
  4  5  1  0
  5  6  2  0
  6  7  1  0
  7  8  2  0
  8  9  1  0
  9 10  2  0
 10 11  1  0
 11 12  2  0
  6 13  1  0
 13 14  2  0
 14 15  1  0
 15 16  1  0
 16 17  2  0
 16 18  1  0
 18 19  1  0
 19 20  1  0
 19 21  1  0
 19 22  1  0
 14  4  1  0
 12  7  1  0
A    1
 C1 
A    2
 C2 
A    3
 C3 
A    4
 N1 
A    5
 N2 
A    6
 C4 
A    7
 C5 
A    8
 C6 
A    9
 C7 
A   10
 C8 
A   11
 C9 
A   12
 C10
A   13
 C11
A   14
 C12
A   15
 N3 
A   16
 C13
A   17
 O1 
A   18
 C14
A   19
 C15
A   20
 C16
A   21
 F1 
A   22
 F2 
M  END
>  <similarity>  (2) 
1.0

>  <smiles>  (2) 
CC(C)n1nc(-c2ccccc2)cc1NC(=O)CC(C)(F)F

>  <cmpd_id>  (2) 
ENAMINE:Z1864315293

>  <used_subnode>  (2) 
c1cn[nH]c1

>  <used_synthon>  (2) 
CC(F)(F)CC(=O)N[Xe]

>  <ref_subnode>  (2) 
c1cn[nH]c1

>  <ref_synthon>  (2) 
N#CCC(=O)N[Xe]

>  <fragmentA>  (2) 
x0556_0A

>  <fragmentB>  (2) 
x0310_0A

>  <HA>  (2) 
22

>  <HBD>  (2) 
1

>  <HBA>  (2) 
3

>  <MW>  (2) 
307.149618668

>  <TPSA>  (2) 
46.92

>  <LogP>  (2) 
4.114800000000003

>  <RBs>  (2) 
5

>  <G_bound>  (2) 
-6.176828545000182

>  <G_unbound>  (2) 
0.6110589088727941

>  <deltaG>  (2) 
-6.787887453872976

>  <comRMSD>  (2) 
0.4339012674476673

>  <UFFGibbs>  (2) 
331.86145435611064

>  <strain_per_HA>  (2) 
15.084611561641394

>  <substructure_overlap_check>  (2) 
True

>  <energy_ratio_check>  (2) 
True

>  <const_energy/unconst_energy>  (2) 
1.0022183082880145

>  <sucos>  (2) 
0.5089671028098298

>  <interactions>  (2) 
HBDonor_SER-125,Hydrophobic_TYR-90,Hydrophobic_HIS-21,Hydrophobic_PRO-107,Hydrophobic_CYS-110,Hydrophobic_VAL-124,Hydrophobic_TYR-89

>  <total_num_ints>  (2) 
7

>  <total_num_ints_nonhyd>  (2) 
1

>  <num_uniq_frag_ints>  (2) 
1

>  <num_repl_uniq_ints>  (2) 
1

>  <num_uniq_ints_lost>  (2) 
0

>  <num_new_uniq_ints>  (2) 
6

>  <int_check>  (2) 
True

>  <ref_url>  (2) 
https://pubs.acs.org/doi/10.1021/acs.jcim.3c00276?fig=tgr1&ref=pdf

>  <submitter_name>  (2) 
Steph Wills

>  <submitter_institution>  (2) 
University of Oxford

>  <submitter_email>  (2) 
stephanie.wills@balliol.ox.ac.uk

>  <generation_date>  (2) 
2023-11-23

>  <method>  (2) 
FragNetv2

>  <original SMILES>  (2) 
CC(C)n1nc(-c2ccccc2)cc1NC(=O)CC(C)(F)F

>  <original_name>  (2) 
x0556_0A-x0310_0A_6122_B1X

>  <ref_mols>  (2) 
x0556_0A,x0310_0A

>  <ref_pdb>  (2) 
x0310_0A

>  <rationale>  (2) 
FragNet: 1 round bioisosteric merging incl c1cn[nH]c1 and CC(F)(F)CC(=O)N[Xe] replacing N#CCC(=O)N[Xe]

$$$$
x0556_0A-x0310_0A_33518_B1X
     RDKit          3D

 23 24  0  0  0  0  0  0  0  0999 V2000
    9.2980    8.5010   22.4070 C   0  0  0  0  0  0  0  0  0  0  0  0
    9.5650    9.1500   23.6230 C   0  0  0  0  0  0  0  0  0  0  0  0
   10.9550    9.4390   23.3130 C   0  0  0  0  0  0  0  0  0  0  0  0
    8.8530   10.3110   24.0520 N   0  0  0  0  0  0  0  0  0  0  0  0
    7.8040   10.1190   24.9280 N   0  0  0  0  0  0  0  0  0  0  0  0
    7.2120   11.3590   25.2800 C   0  0  0  0  0  0  0  0  0  0  0  0
    6.1150   11.5410   26.1680 C   0  0  0  0  0  0  0  0  0  0  0  0
    5.7580   10.5020   27.0630 C   0  0  0  0  0  0  0  0  0  0  0  0
    4.5950   10.9680   27.8620 C   0  0  0  0  0  0  0  0  0  0  0  0
    4.4020   12.3480   27.2770 C   0  0  0  0  0  0  0  0  0  0  0  0
    5.3530   12.5740   26.2890 O   0  0  0  0  0  0  0  0  0  0  0  0
    7.9720   12.4360   24.5410 C   0  0  0  0  0  0  0  0  0  0  0  0
    9.0360   11.6490   23.7640 C   0  0  0  0  0  0  0  0  0  0  0  0
    9.8970   12.3900   23.0130 N   0  0  0  0  0  0  0  0  0  0  0  0
   10.6510   13.4250   23.6880 C   0  0  0  0  0  0  0  0  0  0  0  0
   10.2640   14.0020   24.6930 O   0  0  0  0  0  0  0  0  0  0  0  0
   11.9380   13.7200   23.1160 C   0  0  0  0  0  0  0  0  0  0  0  0
   12.2950   13.7450   21.7440 C   0  0  0  0  0  0  0  0  0  0  0  0
   12.9950   13.0730   23.6680 C   0  0  0  0  0  0  0  0  0  0  0  0
   12.1870   15.1680   23.4300 C   0  0  0  0  0  0  0  0  0  0  0  0
   12.0400   16.0630   22.1810 C   0  0  0  0  0  0  0  0  0  0  0  0
   10.9640   15.6800   21.4560 F   0  0  0  0  0  0  0  0  0  0  0  0
   13.1120   15.8830   21.3970 F   0  0  0  0  0  0  0  0  0  0  0  0
  1  2  1  0
  2  3  1  0
  2  4  1  0
  4  5  1  0
  5  6  2  0
  6  7  1  0
  7  8  2  0
  8  9  1  0
  9 10  2  0
 10 11  1  0
  6 12  1  0
 12 13  2  0
 13 14  1  0
 14 15  1  0
 15 16  2  0
 15 17  1  0
 17 18  1  0
 17 19  1  0
 17 20  1  0
 20 21  1  0
 21 22  1  0
 21 23  1  0
 13  4  1  0
 11  7  1  0
A    1
 C1 
A    2
 C2 
A    3
 C3 
A    4
 N1 
A    5
 N2 
A    6
 C4 
A    7
 C5 
A    8
 C6 
A    9
 C7 
A   10
 C8 
A   11
 O1 
A   12
 C9 
A   13
 C10
A   14
 N3 
A   15
 C11
A   16
 O2 
A   17
 C12
A   18
 C13
A   19
 C14
A   20
 C15
A   21
 C16
A   22
 F1 
A   23
 F2 
M  END
>  <similarity>  (3) 
1.0

>  <smiles>  (3) 
CC(C)n1nc(-c2ccco2)cc1NC(=O)C(C)(C)CC(F)F

>  <cmpd_id>  (3) 
ENAMINE:Z2349069754

>  <used_subnode>  (3) 
c1cn[nH]c1

>  <used_synthon>  (3) 
CC(C)(CC(F)F)C(=O)N[Xe]

>  <ref_subnode>  (3) 
c1cn[nH]c1

>  <ref_synthon>  (3) 
N#CCC(=O)N[Xe]

>  <fragmentA>  (3) 
x0556_0A

>  <fragmentB>  (3) 
x0310_0A

>  <HA>  (3) 
23

>  <HBD>  (3) 
1

>  <HBA>  (3) 
4

>  <MW>  (3) 
325.160183352

>  <TPSA>  (3) 
60.06

>  <LogP>  (3) 
4.343900000000003

>  <RBs>  (3) 
6

>  <G_bound>  (3) 
-5.360622535803118

>  <G_unbound>  (3) 
-0.5000484793006886

>  <deltaG>  (3) 
-4.860574056502429

>  <comRMSD>  (3) 
0.5667474747175933

>  <UFFGibbs>  (3) 
1269.9988906669792

>  <strain_per_HA>  (3) 
55.217343072477355

>  <substructure_overlap_check>  (3) 
True

>  <energy_ratio_check>  (3) 
True

>  <const_energy/unconst_energy>  (3) 
1.0024838147122659

>  <sucos>  (3) 
0.5484011068865736

>  <interactions>  (3) 
HBDonor_SER-125,Hydrophobic_HIS-21,Hydrophobic_PRO-107,Hydrophobic_CYS-110,Hydrophobic_VAL-124,Hydrophobic_TYR-89

>  <total_num_ints>  (3) 
6

>  <total_num_ints_nonhyd>  (3) 
1

>  <num_uniq_frag_ints>  (3) 
1

>  <num_repl_uniq_ints>  (3) 
1

>  <num_uniq_ints_lost>  (3) 
0

>  <num_new_uniq_ints>  (3) 
5

>  <int_check>  (3) 
True

>  <ref_url>  (3) 
https://pubs.acs.org/doi/10.1021/acs.jcim.3c00276?fig=tgr1&ref=pdf

>  <submitter_name>  (3) 
Steph Wills

>  <submitter_institution>  (3) 
University of Oxford

>  <submitter_email>  (3) 
stephanie.wills@balliol.ox.ac.uk

>  <generation_date>  (3) 
2023-11-23

>  <method>  (3) 
FragNetv2

>  <original SMILES>  (3) 
CC(C)n1nc(-c2ccco2)cc1NC(=O)C(C)(C)CC(F)F

>  <original_name>  (3) 
x0556_0A-x0310_0A_33518_B1X

>  <ref_mols>  (3) 
x0556_0A,x0310_0A

>  <ref_pdb>  (3) 
x0310_0A

>  <rationale>  (3) 
FragNet: 1 round bioisosteric merging incl c1cn[nH]c1 and CC(C)(CC(F)F)C(=O)N[Xe] replacing N#CCC(=O)N[Xe]

$$$$
x0556_0A-x0310_0A_54192_B1X_rgrp-0
     RDKit          3D

 19 19  0  0  0  0  0  0  0  0999 V2000
   13.5310   14.5160   25.5490 C   0  0  0  0  0  0  0  0  0  0  0  0
   13.2810   14.3920   24.0780 C   0  0  0  0  0  0  0  0  0  0  0  0
   12.3230   15.1980   23.4600 C   0  0  0  0  0  0  0  0  0  0  0  0
   11.9740   14.8730   22.1890 C   0  0  0  0  0  0  0  0  0  0  0  0
   11.3480   13.6910   22.1150 C   0  0  0  0  0  0  0  0  0  0  0  0
   10.6320   13.2500   23.2800 C   0  0  0  0  0  0  0  0  0  0  0  0
   10.9410   13.4300   24.4510 O   0  0  0  0  0  0  0  0  0  0  0  0
    9.5550   12.5900   22.8700 N   0  0  0  0  0  0  0  0  0  0  0  0
    8.7820   11.7970   23.8010 C   0  0  0  0  0  0  0  0  0  0  0  0
    7.7430   12.3810   24.6980 C   0  0  0  0  0  0  0  0  0  0  0  0
    7.3260   13.8390   24.7970 C   0  0  0  0  0  0  0  0  0  0  0  0
    7.1350   11.4740   25.4880 C   0  0  0  0  0  0  0  0  0  0  0  0
    6.0710   11.5160   26.5220 C   0  0  0  0  0  0  0  0  0  0  0  0
    5.5290   10.2870   26.7460 F   0  0  0  0  0  0  0  0  0  0  0  0
    5.0340   12.3410   26.2370 F   0  0  0  0  0  0  0  0  0  0  0  0
    6.5430   11.9270   27.7340 F   0  0  0  0  0  0  0  0  0  0  0  0
    7.7860   10.1790   25.1200 N   0  0  0  0  0  0  0  0  0  0  0  0
    8.7490   10.4000   24.1270 N   0  0  0  0  0  0  0  0  0  0  0  0
    9.5200    9.3230   23.5930 C   0  0  0  0  0  0  0  0  0  0  0  0
  1  2  1  0
  2  3  1  0
  3  4  1  0
  4  5  1  0
  5  6  1  0
  6  7  2  0
  6  8  1  0
  8  9  1  0
  9 10  2  0
 10 11  1  0
 10 12  1  0
 12 13  1  0
 13 14  1  0
 13 15  1  0
 13 16  1  0
 12 17  2  0
 17 18  1  0
 18 19  1  0
 18  9  1  0
A    1
 C1 
A    2
 C2 
A    3
 C3 
A    4
 C4 
A    5
 C5 
A    6
 C6 
A    7
 O1 
A    8
 N1 
A    9
 C7 
A   10
 C8 
A   11
 C9 
A   12
 C10
A   13
 C11
A   14
 F1 
A   15
 F2 
A   16
 F3 
A   17
 N2 
A   18
 N3 
A   19
 C12
M  END
>  <similarity>  (4) 
1.0

>  <smiles>  (4) 
CCCCCC(=O)Nc1c(C)c(C(F)(F)F)nn1C

>  <cmpd_id>  (4) 
ENAMINE:Z1689684941

>  <used_subnode>  (4) 
c1cn[nH]c1

>  <used_synthon>  (4) 
CCCCCC(=O)N[Xe]

>  <ref_subnode>  (4) 
c1cn[nH]c1

>  <ref_synthon>  (4) 
N#CCC(=O)N[Xe]

>  <fragmentA>  (4) 
x0556_0A

>  <fragmentB>  (4) 
x0310_0A

>  <HA>  (4) 
19

>  <HBD>  (4) 
1

>  <HBA>  (4) 
3

>  <MW>  (4) 
277.140196856

>  <TPSA>  (4) 
46.92

>  <LogP>  (4) 
3.2661200000000017

>  <RBs>  (4) 
5

>  <G_bound>  (4) 
-7.166701061313457

>  <G_unbound>  (4) 
0.4789756855307218

>  <deltaG>  (4) 
-7.645676746844179

>  <comRMSD>  (4) 
0.19129895032875788

>  <substructure_overlap_check>  (4) 
True

>  <energy_ratio_check>  (4) 
True

>  <const_energy/unconst_energy>  (4) 
4.601321851490226

>  <sucos>  (4) 
0.5816940636847817

>  <interactions>  (4) 
Hydrophobic_GLU-88,Hydrophobic_PRO-107,Hydrophobic_HIS-21,Hydrophobic_TYR-89,HBDonor_SER-125,Hydrophobic_TYR-90

>  <total_num_ints>  (4) 
6

>  <total_num_ints_nonhyd>  (4) 
1

>  <num_uniq_frag_ints>  (4) 
1

>  <num_repl_uniq_ints>  (4) 
1

>  <num_uniq_ints_lost>  (4) 
0

>  <num_new_uniq_ints>  (4) 
5

>  <int_check>  (4) 
True

>  <ref_url>  (4) 
https://pubs.acs.org/doi/10.1021/acs.jcim.3c00276?fig=tgr1&ref=pdf

>  <submitter_name>  (4) 
Steph Wills

>  <submitter_institution>  (4) 
University of Oxford

>  <submitter_email>  (4) 
stephanie.wills@balliol.ox.ac.uk

>  <generation_date>  (4) 
2023-11-23

>  <method>  (4) 
FragNetv2

>  <original SMILES>  (4) 
CCCCCC(=O)Nc1c(C)c(C(F)(F)F)nn1C

>  <original_name>  (4) 
x0556_0A-x0310_0A_54192_B1X_rgrp-0

>  <ref_mols>  (4) 
x0556_0A,x0310_0A

>  <ref_pdb>  (4) 
x0310_0A

>  <rationale>  (4) 
FragNet: 1 round bioisosteric merging incl c1cn[nH]c1 and CCCCCC(=O)N[Xe] replacing N#CCC(=O)N[Xe]

$$$$
x0556_0A-x0310_0A_22923_B1X
     RDKit          3D

 16 16  0  0  0  0  0  0  0  0999 V2000
    4.8860   13.5990   26.1220 C   0  0  0  0  0  0  0  0  0  0  0  0
    5.2840   12.8100   27.2410 O   0  0  0  0  0  0  0  0  0  0  0  0
    6.4460   12.0930   27.1270 C   0  0  0  0  0  0  0  0  0  0  0  0
    6.4170   11.2030   26.1230 C   0  0  0  0  0  0  0  0  0  0  0  0
    7.4870   11.0100   25.2130 C   0  0  0  0  0  0  0  0  0  0  0  0
    8.1050   12.1110   24.6480 C   0  0  0  0  0  0  0  0  0  0  0  0
    9.2050   11.5970   23.7360 C   0  0  0  0  0  0  0  0  0  0  0  0
   10.0730   12.3840   22.9940 N   0  0  0  0  0  0  0  0  0  0  0  0
   10.8050   13.3920   23.5930 C   0  0  0  0  0  0  0  0  0  0  0  0
   10.4600   13.9730   24.6150 O   0  0  0  0  0  0  0  0  0  0  0  0
   12.1220   13.7700   22.9350 C   0  0  0  0  0  0  0  0  0  0  0  0
   13.1920   13.7260   24.0110 C   0  0  0  0  0  0  0  0  0  0  0  0
   12.0930   15.0880   22.4170 C   0  0  0  0  0  0  0  0  0  0  0  0
    9.1500   10.2550   23.8230 N   0  0  0  0  0  0  0  0  0  0  0  0
    9.8980    9.2540   23.2240 C   0  0  0  0  0  0  0  0  0  0  0  0
    8.1390    9.9180   24.6940 N   0  0  0  0  0  0  0  0  0  0  0  0
  1  2  1  0
  2  3  1  0
  3  4  1  0
  4  5  1  0
  5  6  1  0
  6  7  2  0
  7  8  1  0
  8  9  1  0
  9 10  2  0
  9 11  1  0
 11 12  1  0
 11 13  1  0
  7 14  1  0
 14 15  1  0
 14 16  1  0
 16  5  2  0
A    1
 C1 
A    2
 O1 
A    3
 C2 
A    4
 C3 
A    5
 C4 
A    6
 C5 
A    7
 C6 
A    8
 N1 
A    9
 C7 
A   10
 O2 
A   11
 C8 
A   12
 C9 
A   13
 C10
A   14
 N2 
A   15
 C11
A   16
 N3 
M  END
>  <similarity>  (5) 
1.0

>  <smiles>  (5) 
COCCc1cc(NC(=O)C(C)C)n(C)n1

>  <cmpd_id>  (5) 
ENAMINE:Z1449166017

>  <used_subnode>  (5) 
c1cn[nH]c1

>  <used_synthon>  (5) 
CC(C)C(=O)N[Xe]

>  <ref_subnode>  (5) 
c1cn[nH]c1

>  <ref_synthon>  (5) 
N#CCC(=O)N[Xe]

>  <fragmentA>  (5) 
x0556_0A

>  <fragmentB>  (5) 
x0310_0A

>  <HA>  (5) 
16

>  <HBD>  (5) 
1

>  <HBA>  (5) 
4

>  <MW>  (5) 
225.147726848

>  <TPSA>  (5) 
56.15

>  <LogP>  (5) 
1.2035

>  <RBs>  (5) 
5

>  <G_bound>  (5) 
-11.782842180955694

>  <G_unbound>  (5) 
0.18549176357447666

>  <deltaG>  (5) 
-11.96833394453017

>  <comRMSD>  (5) 
0.7120643227251436

>  <UFFGibbs>  (5) 
111.81406991618718

>  <strain_per_HA>  (5) 
6.988379369761699

>  <substructure_overlap_check>  (5) 
True

>  <energy_ratio_check>  (5) 
True

>  <const_energy/unconst_energy>  (5) 
0.9550480819545532

>  <sucos>  (5) 
0.5033734378836136

>  <interactions>  (5) 
HBDonor_SER-125,Hydrophobic_TYR-90,Hydrophobic_HIS-21,Hydrophobic_PRO-107,Hydrophobic_TYR-89

>  <total_num_ints>  (5) 
5

>  <total_num_ints_nonhyd>  (5) 
1

>  <num_uniq_frag_ints>  (5) 
1

>  <num_repl_uniq_ints>  (5) 
1

>  <num_uniq_ints_lost>  (5) 
0

>  <num_new_uniq_ints>  (5) 
4

>  <int_check>  (5) 
True

>  <ref_url>  (5) 
https://pubs.acs.org/doi/10.1021/acs.jcim.3c00276?fig=tgr1&ref=pdf

>  <submitter_name>  (5) 
Steph Wills

>  <submitter_institution>  (5) 
University of Oxford

>  <submitter_email>  (5) 
stephanie.wills@balliol.ox.ac.uk

>  <generation_date>  (5) 
2023-11-23

>  <method>  (5) 
FragNetv2

>  <original SMILES>  (5) 
COCCc1cc(NC(=O)C(C)C)n(C)n1

>  <original_name>  (5) 
x0556_0A-x0310_0A_22923_B1X

>  <ref_mols>  (5) 
x0556_0A,x0310_0A

>  <ref_pdb>  (5) 
x0310_0A

>  <rationale>  (5) 
FragNet: 1 round bioisosteric merging incl c1cn[nH]c1 and CC(C)C(=O)N[Xe] replacing N#CCC(=O)N[Xe]

$$$$
x0556_0A-x0310_0A_5635_B1X
     RDKit          3D

 21 22  0  0  0  0  0  0  0  0999 V2000
    7.9660   13.6800   24.7040 C   0  0  0  0  0  0  0  0  0  0  0  0
    8.1020   12.1630   24.6400 C   0  0  0  0  0  0  0  0  0  0  0  0
    9.0190   11.5280   23.6560 C   0  0  0  0  0  0  0  0  0  0  0  0
    9.7510   12.3170   22.8080 N   0  0  0  0  0  0  0  0  0  0  0  0
   10.7430   13.1160   23.2770 C   0  0  0  0  0  0  0  0  0  0  0  0
   10.8980   13.4450   24.4480 O   0  0  0  0  0  0  0  0  0  0  0  0
   11.5140   13.4940   22.2300 C   0  0  1  0  0  0  0  0  0  0  0  0
   11.0310   14.3040   21.0780 C   0  0  0  0  0  0  0  0  0  0  0  0
   12.6530   14.2640   22.7980 C   0  0  0  0  0  0  0  0  0  0  0  0
   11.9670   15.2680   23.8980 S   0  0  0  0  0  3  0  0  0  0  0  0
   13.0030   14.7690   25.3000 C   0  0  0  0  0  0  0  0  0  0  0  0
   12.1550   16.5470   23.3040 O   0  0  0  0  0  1  0  0  0  0  0  0
    8.8660   10.1780   23.9020 C   0  0  0  0  0  0  0  0  0  0  0  0
    7.9860    9.9570   24.8980 N   0  0  0  0  0  0  0  0  0  0  0  0
    7.5460   11.1630   25.3270 N   0  0  0  0  0  0  0  0  0  0  0  0
    6.6540   11.2130   26.3520 C   0  0  0  0  0  0  0  0  0  0  0  0
    6.6550   12.3610   27.3620 C   0  0  0  0  0  0  0  0  0  0  0  0
    5.6580   12.3630   28.4800 C   0  0  0  0  0  0  0  0  0  0  0  0
    4.7730   11.2730   28.5100 C   0  0  0  0  0  0  0  0  0  0  0  0
    4.7950   10.2520   27.5820 C   0  0  0  0  0  0  0  0  0  0  0  0
    5.7080   10.2180   26.5240 C   0  0  0  0  0  0  0  0  0  0  0  0
  1  2  1  0
  2  3  2  0
  3  4  1  0
  4  5  1  0
  5  6  2  0
  5  7  1  0
  7  8  1  6
  7  9  1  0
  9 10  1  0
 10 11  1  1
 10 12  1  0
  3 13  1  0
 13 14  2  0
 14 15  1  0
 15 16  1  0
 16 17  2  0
 17 18  1  0
 18 19  2  0
 19 20  1  0
 20 21  2  0
 15  2  1  0
 21 16  1  0
M  CHG  2  10   1  12  -1
A    1
 C1 
A    2
 C2 
A    3
 C3 
A    4
 N1 
A    5
 C4 
A    6
 O1 
A    7
 C5 
A    8
 C6 
A    9
 C7 
A   10
 S1 
A   11
 C8 
A   12
 O2 
A   13
 C9 
A   14
 N2 
A   15
 N3 
A   16
 C10
A   17
 C11
A   18
 C12
A   19
 C13
A   20
 C14
A   21
 C15
M  END
>  <similarity>  (6) 
1.0

>  <smiles>  (6) 
Cc1c(NC(=O)C(C)C[S+](C)[O-])cnn1-c1ccccc1

>  <cmpd_id>  (6) 
ENAMINE:PV-002236652868

>  <used_subnode>  (6) 
c1cn[nH]c1

>  <used_synthon>  (6) 
CC(C[S+](C)[O-])C(=O)N[Xe]

>  <ref_subnode>  (6) 
c1cn[nH]c1

>  <ref_synthon>  (6) 
N#CCC(=O)N[Xe]

>  <fragmentA>  (6) 
x0556_0A

>  <fragmentB>  (6) 
x0310_0A

>  <HA>  (6) 
21

>  <HBD>  (6) 
1

>  <HBA>  (6) 
4

>  <MW>  (6) 
305.119797848

>  <TPSA>  (6) 
69.97999999999999

>  <LogP>  (6) 
2.13382

>  <RBs>  (6) 
5

>  <G_bound>  (6) 
-9.475559387057752

>  <G_unbound>  (6) 
-0.16657892519810322

>  <deltaG>  (6) 
-9.30898046185965

>  <comRMSD>  (6) 
1.1330318366661714

>  <UFFGibbs>  (6) 
267.7771419741266

>  <strain_per_HA>  (6) 
12.75129247495841

>  <substructure_overlap_check>  (6) 
True

>  <energy_ratio_check>  (6) 
True

>  <const_energy/unconst_energy>  (6) 
1.04941405497794

>  <sucos>  (6) 
0.5037538406915393

>  <interactions>  (6) 
HBDonor_SER-125,Hydrophobic_GLU-88,Hydrophobic_TYR-90,Hydrophobic_HIS-21,HBAcceptor_SER-87,Hydrophobic_PRO-107,Hydrophobic_TYR-89

>  <total_num_ints>  (6) 
7

>  <total_num_ints_nonhyd>  (6) 
2

>  <num_uniq_frag_ints>  (6) 
1

>  <num_repl_uniq_ints>  (6) 
1

>  <num_uniq_ints_lost>  (6) 
0

>  <num_new_uniq_ints>  (6) 
6

>  <int_check>  (6) 
True

>  <ref_url>  (6) 
https://pubs.acs.org/doi/10.1021/acs.jcim.3c00276?fig=tgr1&ref=pdf

>  <submitter_name>  (6) 
Steph Wills

>  <submitter_institution>  (6) 
University of Oxford

>  <submitter_email>  (6) 
stephanie.wills@balliol.ox.ac.uk

>  <generation_date>  (6) 
2023-11-23

>  <method>  (6) 
FragNetv2

>  <original SMILES>  (6) 
Cc1c(NC(=O)C(C)C[S+](C)[O-])cnn1-c1ccccc1

>  <original_name>  (6) 
x0556_0A-x0310_0A_5635_B1X

>  <ref_mols>  (6) 
x0556_0A,x0310_0A

>  <ref_pdb>  (6) 
x0310_0A

>  <rationale>  (6) 
FragNet: 1 round bioisosteric merging incl c1cn[nH]c1 and CC(C[S+](C)[O-])C(=O)N[Xe] replacing N#CCC(=O)N[Xe]

$$$$
x0556_0A-x0310_0A_36827_B1X
     RDKit          3D

 20 20  0  0  0  0  0  0  0  0999 V2000
    9.9140    9.2840   22.4290 C   0  0  0  0  0  0  0  0  0  0  0  0
    9.5750    9.3690   23.6870 C   0  0  0  0  0  0  0  0  0  0  0  0
    8.8600   10.5140   24.1500 N   0  0  0  0  0  0  0  0  0  0  0  0
    7.8490   10.3680   25.0930 N   0  0  0  0  0  0  0  0  0  0  0  0
    7.4240   11.6350   25.3090 C   0  0  0  0  0  0  0  0  0  0  0  0
    6.2900   11.8490   26.3550 C   0  0  0  0  0  0  0  0  0  0  0  0
    5.1420   12.7630   25.9370 C   0  0  0  0  0  0  0  0  0  0  0  0
    6.8300   12.5330   27.6110 C   0  0  0  0  0  0  0  0  0  0  0  0
    5.7070   10.4650   26.7340 C   0  0  0  0  0  0  0  0  0  0  0  0
    8.1330   12.5720   24.5120 C   0  0  0  0  0  0  0  0  0  0  0  0
    9.0450   11.8850   23.7810 C   0  0  0  0  0  0  0  0  0  0  0  0
    9.9660   12.5280   22.8690 N   0  0  0  0  0  0  0  0  0  0  0  0
   10.8620   13.4790   23.2720 C   0  0  0  0  0  0  0  0  0  0  0  0
   10.9950   13.9390   24.4070 O   0  0  0  0  0  0  0  0  0  0  0  0
   11.6300   13.8750   22.1530 C   0  0  1  0  0  0  0  0  0  0  0  0
   10.6990   14.4780   21.1130 C   0  0  0  0  0  0  0  0  0  0  0  0
   12.5280   14.9980   22.6340 C   0  0  0  0  0  0  0  0  0  0  0  0
   13.3110   14.5650   23.6500 F   0  0  0  0  0  0  0  0  0  0  0  0
   13.3020   15.4280   21.6230 F   0  0  0  0  0  0  0  0  0  0  0  0
   11.8900   16.0800   23.0630 F   0  0  0  0  0  0  0  0  0  0  0  0
  1  2  1  0
  2  3  1  0
  3  4  1  0
  4  5  2  0
  5  6  1  0
  6  7  1  0
  6  8  1  0
  6  9  1  0
  5 10  1  0
 10 11  2  0
 11 12  1  0
 12 13  1  0
 13 14  2  0
 13 15  1  0
 15 16  1  6
 15 17  1  0
 17 18  1  0
 17 19  1  0
 17 20  1  0
 11  3  1  0
A    1
 C1 
A    2
 C2 
A    3
 N1 
A    4
 N2 
A    5
 C3 
A    6
 C4 
A    7
 C5 
A    8
 C6 
A    9
 C7 
A   10
 C8 
A   11
 C9 
A   12
 N3 
A   13
 C10
A   14
 O1 
A   15
 C11
A   16
 C12
A   17
 C13
A   18
 F1 
A   19
 F2 
A   20
 F3 
M  END
>  <similarity>  (7) 
1.0

>  <smiles>  (7) 
CCn1nc(C(C)(C)C)cc1NC(=O)C(C)C(F)(F)F

>  <cmpd_id>  (7) 
ENAMINE:Z3608273487

>  <used_subnode>  (7) 
c1cn[nH]c1

>  <used_synthon>  (7) 
CC(C(=O)N[Xe])C(F)(F)F

>  <ref_subnode>  (7) 
c1cn[nH]c1

>  <ref_synthon>  (7) 
N#CCC(=O)N[Xe]

>  <fragmentA>  (7) 
x0556_0A

>  <fragmentB>  (7) 
x0310_0A

>  <HA>  (7) 
20

>  <HBD>  (7) 
1

>  <HBA>  (7) 
3

>  <MW>  (7) 
291.15584692

>  <TPSA>  (7) 
46.92

>  <LogP>  (7) 
3.3374000000000015

>  <RBs>  (7) 
3

>  <G_bound>  (7) 
-8.123352647957534

>  <G_unbound>  (7) 
0.7892372476156568

>  <deltaG>  (7) 
-8.912589895573191

>  <comRMSD>  (7) 
0.5255907373098592

>  <UFFGibbs>  (7) 
168.113661867889

>  <strain_per_HA>  (7) 
8.40568309339445

>  <substructure_overlap_check>  (7) 
True

>  <energy_ratio_check>  (7) 
True

>  <const_energy/unconst_energy>  (7) 
0.9990624133370457

>  <sucos>  (7) 
0.5202832347504709

>  <interactions>  (7) 
HBDonor_SER-125,Hydrophobic_TYR-90,Hydrophobic_HIS-21,Hydrophobic_PRO-107,Hydrophobic_VAL-124

>  <total_num_ints>  (7) 
5

>  <total_num_ints_nonhyd>  (7) 
1

>  <num_uniq_frag_ints>  (7) 
1

>  <num_repl_uniq_ints>  (7) 
1

>  <num_uniq_ints_lost>  (7) 
0

>  <num_new_uniq_ints>  (7) 
4

>  <int_check>  (7) 
True

>  <ref_url>  (7) 
https://pubs.acs.org/doi/10.1021/acs.jcim.3c00276?fig=tgr1&ref=pdf

>  <submitter_name>  (7) 
Steph Wills

>  <submitter_institution>  (7) 
University of Oxford

>  <submitter_email>  (7) 
stephanie.wills@balliol.ox.ac.uk

>  <generation_date>  (7) 
2023-11-23

>  <method>  (7) 
FragNetv2

>  <original SMILES>  (7) 
CCn1nc(C(C)(C)C)cc1NC(=O)C(C)C(F)(F)F

>  <original_name>  (7) 
x0556_0A-x0310_0A_36827_B1X

>  <ref_mols>  (7) 
x0556_0A,x0310_0A

>  <ref_pdb>  (7) 
x0310_0A

>  <rationale>  (7) 
FragNet: 1 round bioisosteric merging incl c1cn[nH]c1 and CC(C(=O)N[Xe])C(F)(F)F replacing N#CCC(=O)N[Xe]

$$$$
x0556_0A-x0310_0A_42321_B1X
     RDKit          3D

 19 19  0  0  0  0  0  0  0  0999 V2000
   11.9520   13.6570   22.7180 C   0  0  0  0  0  0  0  0  0  0  0  0
   10.7910   13.3030   23.6420 C   0  0  0  0  0  0  0  0  0  0  0  0
   10.8980   13.9010   24.9330 O   0  0  0  0  0  0  0  0  0  0  0  0
    9.7250   12.4450   23.1510 N   0  0  0  0  0  0  0  0  0  0  0  0
    8.8480   11.7440   23.9500 C   0  0  0  0  0  0  0  0  0  0  0  0
    8.8490   10.3860   24.1420 N   0  0  0  0  0  0  0  0  0  0  0  0
    7.8770    9.9520   24.9820 N   0  0  0  0  0  0  0  0  0  0  0  0
    7.2150   11.0730   25.3540 C   0  0  0  0  0  0  0  0  0  0  0  0
    6.0150   11.0540   26.3160 C   0  0  0  0  0  0  0  0  0  0  0  0
    5.1990   12.1300   26.2420 O   0  0  0  0  0  0  0  0  0  0  0  0
    5.8380    9.9890   27.1780 N   0  0  0  0  0  0  0  0  0  0  0  0
    5.1320   10.1580   28.3720 C   0  0  2  0  0  0  0  0  0  0  0  0
    6.0240    9.9330   29.4430 C   0  0  0  0  0  0  0  0  0  0  0  0
    3.8880    9.2180   28.4430 C   0  0  0  0  0  0  0  0  0  0  0  0
    3.8730    8.1480   27.3380 C   0  0  0  0  0  0  0  0  0  0  0  0
    2.7500    9.9530   28.3090 F   0  0  0  0  0  0  0  0  0  0  0  0
    3.8050    8.5900   29.6420 F   0  0  0  0  0  0  0  0  0  0  0  0
    7.7980   12.1980   24.7260 C   0  0  0  0  0  0  0  0  0  0  0  0
    7.2560   13.9800   24.9060 Br  0  0  0  0  0  0  0  0  0  0  0  0
  1  2  1  0
  2  3  2  0
  2  4  1  0
  4  5  1  0
  5  6  1  0
  6  7  1  0
  7  8  2  0
  8  9  1  0
  9 10  2  0
  9 11  1  0
 11 12  1  0
 12 13  1  1
 12 14  1  0
 14 15  1  0
 14 16  1  0
 14 17  1  0
  8 18  1  0
 18 19  1  0
 18  5  2  0
A    1
 C1 
A    2
 C2 
A    3
 O1 
A    4
 N1 
A    5
 C3 
A    6
 N2 
A    7
 N3 
A    8
 C4 
A    9
 C5 
A   10
 O2 
A   11
 N4 
A   12
 C6 
A   13
 C7 
A   14
 C8 
A   15
 C9 
A   16
 F1 
A   17
 F2 
A   18
 C10
A   19
BR1 
M  END
>  <similarity>  (8) 
1.0

>  <smiles>  (8) 
CC(=O)Nc1[nH]nc(C(=O)NC(C)C(C)(F)F)c1Br

>  <cmpd_id>  (8) 
ENAMINE:Z4323971343

>  <used_subnode>  (8) 
c1cn[nH]c1

>  <used_synthon>  (8) 
CC(=O)N[Xe]

>  <ref_subnode>  (8) 
c1cn[nH]c1

>  <ref_synthon>  (8) 
N#CCC(=O)N[Xe]

>  <fragmentA>  (8) 
x0556_0A

>  <fragmentB>  (8) 
x0310_0A

>  <HA>  (8) 
19

>  <HBD>  (8) 
3

>  <HBA>  (8) 
3

>  <MW>  (8) 
338.018994196

>  <TPSA>  (8) 
86.88

>  <LogP>  (8) 
1.9040999999999992

>  <RBs>  (8) 
4

>  <G_bound>  (8) 
-6.955317837084223

>  <G_unbound>  (8) 
1.763064621933339

>  <deltaG>  (8) 
-8.718382459017562

>  <comRMSD>  (8) 
0.4192753339686072

>  <UFFGibbs>  (8) 
110.43414621256397

>  <strain_per_HA>  (8) 
5.812323484871788

>  <substructure_overlap_check>  (8) 
True

>  <energy_ratio_check>  (8) 
True

>  <const_energy/unconst_energy>  (8) 
1.0135325738631693

>  <sucos>  (8) 
0.5215212013867734

>  <interactions>  (8) 
Hydrophobic_HIS-21,HBDonor_SER-105,Hydrophobic_PRO-107,Hydrophobic_HIS-104,Hydrophobic_GLU-106

>  <total_num_ints>  (8) 
5

>  <total_num_ints_nonhyd>  (8) 
1

>  <num_uniq_frag_ints>  (8) 
1

>  <num_repl_uniq_ints>  (8) 
1

>  <num_uniq_ints_lost>  (8) 
0

>  <num_new_uniq_ints>  (8) 
4

>  <int_check>  (8) 
True

>  <ref_url>  (8) 
https://pubs.acs.org/doi/10.1021/acs.jcim.3c00276?fig=tgr1&ref=pdf

>  <submitter_name>  (8) 
Steph Wills

>  <submitter_institution>  (8) 
University of Oxford

>  <submitter_email>  (8) 
stephanie.wills@balliol.ox.ac.uk

>  <generation_date>  (8) 
2023-11-23

>  <method>  (8) 
FragNetv2

>  <original SMILES>  (8) 
CC(=O)Nc1[nH]nc(C(=O)NC(C)C(C)(F)F)c1Br

>  <original_name>  (8) 
x0556_0A-x0310_0A_42321_B1X

>  <ref_mols>  (8) 
x0556_0A,x0310_0A

>  <ref_pdb>  (8) 
x0310_0A

>  <rationale>  (8) 
FragNet: 1 round bioisosteric merging incl c1cn[nH]c1 and CC(=O)N[Xe] replacing N#CCC(=O)N[Xe]

$$$$
x0556_0A-x0310_0A_28530_B1X
     RDKit          3D

 24 24  0  0  0  0  0  0  0  0999 V2000
    5.7390   10.5270   26.6600 C   0  0  0  0  0  0  0  0  0  0  0  0
    6.3910   11.8340   26.4240 C   0  0  0  0  0  0  0  0  0  0  0  0
    6.8750   12.6020   27.5050 C   0  0  0  0  0  0  0  0  0  0  0  0
    5.3510   12.7640   25.8010 C   0  0  0  0  0  0  0  0  0  0  0  0
    7.5330   11.5580   25.4030 C   0  0  0  0  0  0  0  0  0  0  0  0
    8.2250   12.6130   24.5690 C   0  0  0  0  0  0  0  0  0  0  0  0
    9.2020   11.7890   23.8420 C   0  0  0  0  0  0  0  0  0  0  0  0
   10.0640   12.4030   22.9780 N   0  0  0  0  0  0  0  0  0  0  0  0
   11.1340   13.0550   23.5300 C   0  0  0  0  0  0  0  0  0  0  0  0
   11.1560   13.4010   24.7020 O   0  0  0  0  0  0  0  0  0  0  0  0
   12.3000   13.3880   22.5950 C   0  0  0  0  0  0  0  0  0  0  0  0
   12.2370   14.8300   22.2230 C   0  0  0  0  0  0  0  0  0  0  0  0
   12.1220   15.5050   23.5460 C   0  0  0  0  0  0  0  0  0  0  0  0
   13.3890   15.3680   21.3980 C   0  0  0  0  0  0  0  0  0  0  0  0
   11.1080   15.0740   21.4400 C   0  0  0  0  0  0  0  0  0  0  0  0
   11.2830   14.5600   20.2020 F   0  0  0  0  0  0  0  0  0  0  0  0
    9.9670   14.5650   21.9380 F   0  0  0  0  0  0  0  0  0  0  0  0
   10.9710   16.3620   21.2440 F   0  0  0  0  0  0  0  0  0  0  0  0
    9.1670   10.5160   24.1100 N   0  0  0  0  0  0  0  0  0  0  0  0
    9.9840    9.4210   23.5790 C   0  0  0  0  0  0  0  0  0  0  0  0
    9.3610    8.4190   23.2940 C   0  0  0  0  0  0  0  0  0  0  0  0
   11.4160    9.2570   23.4750 C   0  0  0  0  0  0  0  0  0  0  0  0
   10.0080    9.4790   22.1200 C   0  0  0  0  0  0  0  0  0  0  0  0
    8.1500   10.3050   25.0590 N   0  0  0  0  0  0  0  0  0  0  0  0
  1  2  1  0
  2  3  1  0
  2  4  1  0
  2  5  1  0
  5  6  1  0
  6  7  2  0
  7  8  1  0
  8  9  1  0
  9 10  2  0
  9 11  1  0
 11 12  1  0
 12 13  1  0
 12 14  1  0
 12 15  1  0
 15 16  1  0
 15 17  1  0
 15 18  1  0
  7 19  1  0
 19 20  1  0
 20 21  1  0
 20 22  1  0
 20 23  1  0
 19 24  1  0
 24  5  2  0
A    1
 C1 
A    2
 C2 
A    3
 C3 
A    4
 C4 
A    5
 C5 
A    6
 C6 
A    7
 C7 
A    8
 N1 
A    9
 C8 
A   10
 O1 
A   11
 C9 
A   12
 C10
A   13
 C11
A   14
 C12
A   15
 C13
A   16
 F1 
A   17
 F2 
A   18
 F3 
A   19
 N2 
A   20
 C14
A   21
 C15
A   22
 C16
A   23
 C17
A   24
 N3 
M  END
>  <similarity>  (9) 
1.0

>  <smiles>  (9) 
CC(C)(C)c1cc(NC(=O)CC(C)(C)C(F)(F)F)n(C(C)(C)C)n1

>  <cmpd_id>  (9) 
ENAMINE:Z1957597442

>  <used_subnode>  (9) 
c1cn[nH]c1

>  <used_synthon>  (9) 
CC(C)(CC(=O)N[Xe])C(F)(F)F

>  <ref_subnode>  (9) 
c1cn[nH]c1

>  <ref_synthon>  (9) 
N#CCC(=O)N[Xe]

>  <fragmentA>  (9) 
x0556_0A

>  <fragmentB>  (9) 
x0310_0A

>  <HA>  (9) 
24

>  <HBD>  (9) 
1

>  <HBA>  (9) 
3

>  <MW>  (9) 
347.21844717600004

>  <TPSA>  (9) 
46.92

>  <LogP>  (9) 
4.852700000000004

>  <RBs>  (9) 
3

>  <G_bound>  (9) 
-5.936428619129103

>  <G_unbound>  (9) 
1.4524466968462302

>  <deltaG>  (9) 
-7.3888753159753335

>  <comRMSD>  (9) 
0.8820370280038358

>  <UFFGibbs>  (9) 
22914.313242238102

>  <strain_per_HA>  (9) 
954.7630517599209

>  <substructure_overlap_check>  (9) 
True

>  <energy_ratio_check>  (9) 
True

>  <const_energy/unconst_energy>  (9) 
0.999257502457323

>  <sucos>  (9) 
0.5219637126454825

>  <interactions>  (9) 
HBDonor_SER-125,Hydrophobic_TYR-90,Hydrophobic_HIS-21,Hydrophobic_PRO-107,Hydrophobic_CYS-110,Hydrophobic_VAL-124,Hydrophobic_TYR-89,Hydrophobic_ASP-109

>  <total_num_ints>  (9) 
8

>  <total_num_ints_nonhyd>  (9) 
1

>  <num_uniq_frag_ints>  (9) 
1

>  <num_repl_uniq_ints>  (9) 
1

>  <num_uniq_ints_lost>  (9) 
0

>  <num_new_uniq_ints>  (9) 
7

>  <int_check>  (9) 
True

>  <ref_url>  (9) 
https://pubs.acs.org/doi/10.1021/acs.jcim.3c00276?fig=tgr1&ref=pdf

>  <submitter_name>  (9) 
Steph Wills

>  <submitter_institution>  (9) 
University of Oxford

>  <submitter_email>  (9) 
stephanie.wills@balliol.ox.ac.uk

>  <generation_date>  (9) 
2023-11-23

>  <method>  (9) 
FragNetv2

>  <original SMILES>  (9) 
CC(C)(C)c1cc(NC(=O)CC(C)(C)C(F)(F)F)n(C(C)(C)C)n1

>  <original_name>  (9) 
x0556_0A-x0310_0A_28530_B1X

>  <ref_mols>  (9) 
x0556_0A,x0310_0A

>  <ref_pdb>  (9) 
x0310_0A

>  <rationale>  (9) 
FragNet: 1 round bioisosteric merging incl c1cn[nH]c1 and CC(C)(CC(=O)N[Xe])C(F)(F)F replacing N#CCC(=O)N[Xe]

$$$$
x0556_0A-x0310_0A_52413_B1X
     RDKit          3D

 17 17  0  0  0  0  0  0  0  0999 V2000
    4.7710   10.9120   27.9070 C   0  0  0  0  0  0  0  0  0  0  0  0
    4.7840   12.1180   27.1390 O   0  0  0  0  0  0  0  0  0  0  0  0
    5.8650   12.2100   26.2980 C   0  0  0  0  0  0  0  0  0  0  0  0
    6.5010   10.8560   26.0850 C   0  0  0  0  0  0  0  0  0  0  0  0
    7.5560   10.8080   25.1420 C   0  0  0  0  0  0  0  0  0  0  0  0
    8.1430   11.8850   24.5910 C   0  0  0  0  0  0  0  0  0  0  0  0
    9.1730   11.4710   23.6620 C   0  0  0  0  0  0  0  0  0  0  0  0
    9.9330   12.3610   22.9530 N   0  0  0  0  0  0  0  0  0  0  0  0
   10.9710   13.0840   23.4800 C   0  0  0  0  0  0  0  0  0  0  0  0
   11.1590   13.3390   24.6640 O   0  0  0  0  0  0  0  0  0  0  0  0
   11.7770   13.5250   22.4700 C   0  0  0  0  0  0  0  0  0  0  0  0
   12.4110   14.8500   22.4920 C   0  0  0  0  0  0  0  0  0  0  0  0
   12.0080   15.4060   23.7990 C   0  0  0  0  0  0  0  0  0  0  0  0
   13.2860   15.5210   21.4450 C   0  0  0  0  0  0  0  0  0  0  0  0
    9.1010   10.1520   23.7480 N   0  0  0  0  0  0  0  0  0  0  0  0
    9.9200    9.3000   22.9980 C   0  0  0  0  0  0  0  0  0  0  0  0
    8.1330    9.6830   24.6420 N   0  0  0  0  0  0  0  0  0  0  0  0
  1  2  1  0
  2  3  1  0
  3  4  1  0
  4  5  1  0
  5  6  1  0
  6  7  2  0
  7  8  1  0
  8  9  1  0
  9 10  2  0
  9 11  1  0
 11 12  2  3
 12 13  1  0
 12 14  1  0
  7 15  1  0
 15 16  1  0
 15 17  1  0
 17  5  2  0
A    1
 C1 
A    2
 O1 
A    3
 C2 
A    4
 C3 
A    5
 C4 
A    6
 C5 
A    7
 C6 
A    8
 N1 
A    9
 C7 
A   10
 O2 
A   11
 C8 
A   12
 C9 
A   13
 C10
A   14
 C11
A   15
 N2 
A   16
 C12
A   17
 N3 
M  END
>  <similarity>  (10) 
1.0

>  <smiles>  (10) 
COCCc1cc(NC(=O)C=C(C)C)n(C)n1

>  <cmpd_id>  (10) 
ENAMINE:Z1449167414

>  <used_subnode>  (10) 
c1cn[nH]c1

>  <used_synthon>  (10) 
CC(C)=CC(=O)N[Xe]

>  <ref_subnode>  (10) 
c1cn[nH]c1

>  <ref_synthon>  (10) 
N#CCC(=O)N[Xe]

>  <fragmentA>  (10) 
x0556_0A

>  <fragmentB>  (10) 
x0310_0A

>  <HA>  (10) 
17

>  <HBD>  (10) 
1

>  <HBA>  (10) 
4

>  <MW>  (10) 
237.147726848

>  <TPSA>  (10) 
56.15

>  <LogP>  (10) 
1.5137

>  <RBs>  (10) 
5

>  <G_bound>  (10) 
-10.1632356477381

>  <G_unbound>  (10) 
0.14669299351742185

>  <deltaG>  (10) 
-10.30992864125552

>  <comRMSD>  (10) 
0.524538142974587

>  <UFFGibbs>  (10) 
254.4888340552077

>  <strain_per_HA>  (10) 
14.969931415012217

>  <substructure_overlap_check>  (10) 
True

>  <energy_ratio_check>  (10) 
True

>  <const_energy/unconst_energy>  (10) 
0.9588610715592497

>  <sucos>  (10) 
0.522221225257587

>  <interactions>  (10) 
HBDonor_SER-125,Hydrophobic_TYR-90,Hydrophobic_HIS-21,Hydrophobic_PRO-107,Hydrophobic_TYR-89

>  <total_num_ints>  (10) 
5

>  <total_num_ints_nonhyd>  (10) 
1

>  <num_uniq_frag_ints>  (10) 
1

>  <num_repl_uniq_ints>  (10) 
1

>  <num_uniq_ints_lost>  (10) 
0

>  <num_new_uniq_ints>  (10) 
4

>  <int_check>  (10) 
True

>  <ref_url>  (10) 
https://pubs.acs.org/doi/10.1021/acs.jcim.3c00276?fig=tgr1&ref=pdf

>  <submitter_name>  (10) 
Steph Wills

>  <submitter_institution>  (10) 
University of Oxford

>  <submitter_email>  (10) 
stephanie.wills@balliol.ox.ac.uk

>  <generation_date>  (10) 
2023-11-23

>  <method>  (10) 
FragNetv2

>  <original SMILES>  (10) 
COCCc1cc(NC(=O)C=C(C)C)n(C)n1

>  <original_name>  (10) 
x0556_0A-x0310_0A_52413_B1X

>  <ref_mols>  (10) 
x0556_0A,x0310_0A

>  <ref_pdb>  (10) 
x0310_0A

>  <rationale>  (10) 
FragNet: 1 round bioisosteric merging incl c1cn[nH]c1 and CC(C)=CC(=O)N[Xe] replacing N#CCC(=O)N[Xe]

$$$$
x0556_0A-x0310_0A_37255_B1X
     RDKit          3D

 20 20  0  0  0  0  0  0  0  0999 V2000
   11.8620   13.5850   22.8000 C   0  0  0  0  0  0  0  0  0  0  0  0
   10.8130   13.2950   23.5960 C   0  0  0  0  0  0  0  0  0  0  0  0
   10.9290   13.8390   24.9080 O   0  0  0  0  0  0  0  0  0  0  0  0
    9.7180   12.5070   23.0550 N   0  0  0  0  0  0  0  0  0  0  0  0
    8.8670   11.7840   23.8860 C   0  0  0  0  0  0  0  0  0  0  0  0
    8.9070   10.4290   24.0800 N   0  0  0  0  0  0  0  0  0  0  0  0
    7.9740    9.9770   24.9330 N   0  0  0  0  0  0  0  0  0  0  0  0
    7.2890   11.0750   25.3230 C   0  0  0  0  0  0  0  0  0  0  0  0
    6.1130   11.0220   26.3140 C   0  0  0  0  0  0  0  0  0  0  0  0
    5.3070   11.9500   26.3380 O   0  0  0  0  0  0  0  0  0  0  0  0
    5.9450    9.9330   27.1930 N   0  0  0  0  0  0  0  0  0  0  0  0
    4.8430    9.9420   28.1400 C   0  0  2  0  0  0  0  0  0  0  0  0
    5.3240    9.8680   29.5860 C   0  0  0  0  0  0  0  0  0  0  0  0
    5.0440   10.8480   30.2710 O   0  0  0  0  0  0  0  0  0  0  0  0
    4.0420    8.6650   27.8470 C   0  0  0  0  0  0  0  0  0  0  0  0
    2.5860    8.5800   28.3060 C   0  0  0  0  0  0  0  0  0  0  0  0
    1.8320    7.6920   27.3280 C   0  0  0  0  0  0  0  0  0  0  0  0
    1.9510    9.7970   28.4510 C   0  0  0  0  0  0  0  0  0  0  0  0
    7.8300   12.2140   24.6790 C   0  0  0  0  0  0  0  0  0  0  0  0
    7.2450   13.9920   24.8680 Br  0  0  0  0  0  0  0  0  0  0  0  0
  1  2  1  0
  2  3  2  0
  2  4  1  0
  4  5  1  0
  5  6  1  0
  6  7  1  0
  7  8  2  0
  8  9  1  0
  9 10  2  0
  9 11  1  0
 11 12  1  0
 12 13  1  1
 13 14  1  0
 12 15  1  0
 15 16  1  0
 16 17  1  0
 16 18  1  0
  8 19  1  0
 19 20  1  0
 19  5  2  0
A    1
 C1 
A    2
 C2 
A    3
 O1 
A    4
 N1 
A    5
 C3 
A    6
 N2 
A    7
 N3 
A    8
 C4 
A    9
 C5 
A   10
 O2 
A   11
 N4 
A   12
 C6 
A   13
 C7 
A   14
 O3 
A   15
 C8 
A   16
 C9 
A   17
 C10
A   18
 C11
A   19
 C12
A   20
BR1 
M  END
>  <similarity>  (11) 
1.0

>  <smiles>  (11) 
CC(=O)Nc1[nH]nc(C(=O)NC(CO)CC(C)C)c1Br

>  <cmpd_id>  (11) 
ENAMINE:PV-002883039553

>  <used_subnode>  (11) 
c1cn[nH]c1

>  <used_synthon>  (11) 
CC(=O)N[Xe]

>  <ref_subnode>  (11) 
c1cn[nH]c1

>  <ref_synthon>  (11) 
N#CCC(=O)N[Xe]

>  <fragmentA>  (11) 
x0556_0A

>  <fragmentB>  (11) 
x0310_0A

>  <HA>  (11) 
20

>  <HBD>  (11) 
4

>  <HBA>  (11) 
4

>  <MW>  (11) 
346.064052568

>  <TPSA>  (11) 
107.11

>  <LogP>  (11) 
1.2673999999999994

>  <RBs>  (11) 
6

>  <G_bound>  (11) 
-6.7122243403101365

>  <G_unbound>  (11) 
1.5549213495665395

>  <deltaG>  (11) 
-8.267145689876676

>  <comRMSD>  (11) 
0.7452813235051011

>  <UFFGibbs>  (11) 
144.88315051955004

>  <strain_per_HA>  (11) 
7.244157525977502

>  <substructure_overlap_check>  (11) 
True

>  <energy_ratio_check>  (11) 
True

>  <const_energy/unconst_energy>  (11) 
0.9399649699152622

>  <sucos>  (11) 
0.5304424477147553

>  <interactions>  (11) 
Hydrophobic_HIS-21,HBDonor_SER-105,Hydrophobic_PRO-107

>  <total_num_ints>  (11) 
3

>  <total_num_ints_nonhyd>  (11) 
1

>  <num_uniq_frag_ints>  (11) 
1

>  <num_repl_uniq_ints>  (11) 
1

>  <num_uniq_ints_lost>  (11) 
0

>  <num_new_uniq_ints>  (11) 
2

>  <int_check>  (11) 
True

>  <ref_url>  (11) 
https://pubs.acs.org/doi/10.1021/acs.jcim.3c00276?fig=tgr1&ref=pdf

>  <submitter_name>  (11) 
Steph Wills

>  <submitter_institution>  (11) 
University of Oxford

>  <submitter_email>  (11) 
stephanie.wills@balliol.ox.ac.uk

>  <generation_date>  (11) 
2023-11-23

>  <method>  (11) 
FragNetv2

>  <original SMILES>  (11) 
CC(=O)Nc1[nH]nc(C(=O)NC(CO)CC(C)C)c1Br

>  <original_name>  (11) 
x0556_0A-x0310_0A_37255_B1X

>  <ref_mols>  (11) 
x0556_0A,x0310_0A

>  <ref_pdb>  (11) 
x0310_0A

>  <rationale>  (11) 
FragNet: 1 round bioisosteric merging incl c1cn[nH]c1 and CC(=O)N[Xe] replacing N#CCC(=O)N[Xe]

$$$$
x0556_0A-x0310_0A_9134_B1X
     RDKit          3D

 22 23  0  0  0  0  0  0  0  0999 V2000
   10.6490    8.7080   23.2300 C   0  0  0  0  0  0  0  0  0  0  0  0
    9.3430    9.2140   22.9520 C   0  0  0  0  0  0  0  0  0  0  0  0
    8.7990   10.2420   23.8320 N   0  0  0  0  0  0  0  0  0  0  0  0
    7.8930    9.9280   24.7870 N   0  0  0  0  0  0  0  0  0  0  0  0
    7.5850   11.1030   25.3660 C   0  0  0  0  0  0  0  0  0  0  0  0
    6.5920   11.2570   26.5060 C   0  0  0  0  0  0  0  0  0  0  0  0
    5.5680   10.2890   26.8310 C   0  0  0  0  0  0  0  0  0  0  0  0
    4.6060   10.2560   27.8110 C   0  0  0  0  0  0  0  0  0  0  0  0
    4.6170   11.4030   28.6720 C   0  0  0  0  0  0  0  0  0  0  0  0
    5.6710   12.4830   28.3960 C   0  0  0  0  0  0  0  0  0  0  0  0
    6.6020   12.3770   27.3460 C   0  0  0  0  0  0  0  0  0  0  0  0
    8.3240   12.1380   24.7610 C   0  0  0  0  0  0  0  0  0  0  0  0
    9.0960   11.5730   23.7910 C   0  0  0  0  0  0  0  0  0  0  0  0
    9.9830   12.1420   22.9370 N   0  0  0  0  0  0  0  0  0  0  0  0
   10.7760   13.0750   23.3880 C   0  0  0  0  0  0  0  0  0  0  0  0
   10.7550   13.5360   24.5210 O   0  0  0  0  0  0  0  0  0  0  0  0
   11.7310   13.5510   22.3090 C   0  0  0  0  0  0  0  0  0  0  0  0
   12.6660   14.4840   23.0060 C   0  0  0  0  0  0  0  0  0  0  0  0
   11.8640   15.5820   23.5040 C   0  0  0  0  0  0  0  0  0  0  0  0
   13.4820   13.8610   24.1480 C   0  0  0  0  0  0  0  0  0  0  0  0
   13.3840   15.1340   21.9450 C   0  0  0  0  0  0  0  0  0  0  0  0
   13.8300   15.7150   21.0950 N   0  0  0  0  0  0  0  0  0  0  0  0
  1  2  1  0
  2  3  1  0
  3  4  1  0
  4  5  2  0
  5  6  1  0
  6  7  2  0
  7  8  1  0
  8  9  2  0
  9 10  1  0
 10 11  2  0
  5 12  1  0
 12 13  2  0
 13 14  1  0
 14 15  1  0
 15 16  2  0
 15 17  1  0
 17 18  1  0
 18 19  1  0
 18 20  1  0
 18 21  1  0
 21 22  3  0
 13  3  1  0
 11  6  1  0
A    1
 C1 
A    2
 C2 
A    3
 N1 
A    4
 N2 
A    5
 C3 
A    6
 C4 
A    7
 C5 
A    8
 C6 
A    9
 C7 
A   10
 C8 
A   11
 C9 
A   12
 C10
A   13
 C11
A   14
 N3 
A   15
 C12
A   16
 O1 
A   17
 C13
A   18
 C14
A   19
 C15
A   20
 C16
A   21
 C17
A   22
 N4 
M  END
>  <similarity>  (12) 
1.0

>  <smiles>  (12) 
CCn1nc(-c2ccccc2)cc1NC(=O)CC(C)(C)C#N

>  <cmpd_id>  (12) 
ENAMINE:Z4246247588

>  <used_subnode>  (12) 
c1cn[nH]c1

>  <used_synthon>  (12) 
CC(C)(C#N)CC(=O)N[Xe]

>  <ref_subnode>  (12) 
c1cn[nH]c1

>  <ref_synthon>  (12) 
N#CCC(=O)N[Xe]

>  <fragmentA>  (12) 
x0556_0A

>  <fragmentB>  (12) 
x0310_0A

>  <HA>  (12) 
22

>  <HBD>  (12) 
1

>  <HBA>  (12) 
4

>  <MW>  (12) 
296.16371126

>  <TPSA>  (12) 
70.71000000000001

>  <LogP>  (12) 
3.448380000000002

>  <RBs>  (12) 
5

>  <G_bound>  (12) 
-8.035150156605999

>  <G_unbound>  (12) 
0.25165595307484095

>  <deltaG>  (12) 
-8.28680610968084

>  <comRMSD>  (12) 
0.4840987815678445

>  <UFFGibbs>  (12) 
140.96257569065023

>  <strain_per_HA>  (12) 
6.407389804120465

>  <substructure_overlap_check>  (12) 
True

>  <energy_ratio_check>  (12) 
True

>  <const_energy/unconst_energy>  (12) 
1.0032902832141906

>  <sucos>  (12) 
0.5323772859466431

>  <interactions>  (12) 
HBDonor_SER-125,Hydrophobic_HIS-21,Hydrophobic_PRO-107,Hydrophobic_CYS-110,Hydrophobic_VAL-124,Hydrophobic_TYR-89,Hydrophobic_ASP-109

>  <total_num_ints>  (12) 
7

>  <total_num_ints_nonhyd>  (12) 
1

>  <num_uniq_frag_ints>  (12) 
1

>  <num_repl_uniq_ints>  (12) 
1

>  <num_uniq_ints_lost>  (12) 
0

>  <num_new_uniq_ints>  (12) 
6

>  <int_check>  (12) 
True

>  <ref_url>  (12) 
https://pubs.acs.org/doi/10.1021/acs.jcim.3c00276?fig=tgr1&ref=pdf

>  <submitter_name>  (12) 
Steph Wills

>  <submitter_institution>  (12) 
University of Oxford

>  <submitter_email>  (12) 
stephanie.wills@balliol.ox.ac.uk

>  <generation_date>  (12) 
2023-11-23

>  <method>  (12) 
FragNetv2

>  <original SMILES>  (12) 
CCn1nc(-c2ccccc2)cc1NC(=O)CC(C)(C)C#N

>  <original_name>  (12) 
x0556_0A-x0310_0A_9134_B1X

>  <ref_mols>  (12) 
x0556_0A,x0310_0A

>  <ref_pdb>  (12) 
x0310_0A

>  <rationale>  (12) 
FragNet: 1 round bioisosteric merging incl c1cn[nH]c1 and CC(C)(C#N)CC(=O)N[Xe] replacing N#CCC(=O)N[Xe]

$$$$
x0556_0A-x0310_0A_31202_B1X
     RDKit          3D

 18 18  0  0  0  0  0  0  0  0999 V2000
    7.1020   14.1540   23.9350 C   0  0  0  0  0  0  0  0  0  0  0  0
    7.3320   13.1360   25.0390 C   0  0  0  0  0  0  0  0  0  0  0  0
    7.8180   11.7510   24.7220 C   0  0  0  0  0  0  0  0  0  0  0  0
    7.4420   10.4310   25.2230 C   0  0  0  0  0  0  0  0  0  0  0  0
    8.1860    9.4190   24.6070 N   0  0  0  0  0  0  0  0  0  0  0  0
    9.0390   10.0770   23.7150 N   0  0  0  0  0  0  0  0  0  0  0  0
    9.8400    9.2710   23.0140 C   0  0  0  0  0  0  0  0  0  0  0  0
    8.8950   11.3940   23.7260 C   0  0  0  0  0  0  0  0  0  0  0  0
    9.4750   12.3590   23.0830 N   0  0  0  0  0  0  0  0  0  0  0  0
   10.2850   13.2180   23.8400 C   0  0  0  0  0  0  0  0  0  0  0  0
   10.0690   13.7210   24.9240 O   0  0  0  0  0  0  0  0  0  0  0  0
   11.5080   13.4570   23.1070 C   0  0  0  0  0  0  0  0  0  0  0  0
   11.7480   14.7110   22.6530 C   0  0  2  0  0  0  0  0  0  0  0  0
   11.0230   15.0620   21.3800 C   0  0  0  0  0  0  0  0  0  0  0  0
    9.5660   14.7570   21.0470 C   0  0  0  0  0  0  0  0  0  0  0  0
   12.9770   14.7260   22.2950 C   0  0  0  0  0  0  0  0  0  0  0  0
   13.4560   15.7650   21.3440 C   0  0  0  0  0  0  0  0  0  0  0  0
   13.6930   14.8340   23.4370 C   0  0  0  0  0  0  0  0  0  0  0  0
  1  2  1  0
  2  3  1  0
  3  4  1  0
  4  5  2  0
  5  6  1  0
  6  7  1  0
  6  8  1  0
  8  9  1  0
  9 10  1  0
 10 11  2  0
 10 12  1  0
 13 12  1  6
 13 14  1  0
 14 15  1  0
 13 16  1  0
 16 17  1  0
 16 18  1  0
  8  3  2  0
A    1
 C1 
A    2
 C2 
A    3
 C3 
A    4
 C4 
A    5
 N1 
A    6
 N2 
A    7
 C5 
A    8
 C6 
A    9
 N3 
A   10
 C7 
A   11
 O1 
A   12
 C8 
A   13
 C9 
A   14
 C10
A   15
 C11
A   16
 C12
A   17
 C13
A   18
 C14
M  END
>  <similarity>  (13) 
1.0

>  <smiles>  (13) 
CCc1cnn(C)c1NC(=O)CC(CC)C(C)C

>  <cmpd_id>  (13) 
ENAMINE:Z3626603198

>  <used_subnode>  (13) 
c1cn[nH]c1

>  <used_synthon>  (13) 
CCC(CC(=O)N[Xe])C(C)C

>  <ref_subnode>  (13) 
c1cn[nH]c1

>  <ref_synthon>  (13) 
N#CCC(=O)N[Xe]

>  <fragmentA>  (13) 
x0556_0A

>  <fragmentB>  (13) 
x0310_0A

>  <HA>  (13) 
18

>  <HBD>  (13) 
1

>  <HBA>  (13) 
3

>  <MW>  (13) 
251.19976241999998

>  <TPSA>  (13) 
46.92

>  <LogP>  (13) 
2.9933000000000014

>  <RBs>  (13) 
6

>  <G_bound>  (13) 
-10.60575599652631

>  <G_unbound>  (13) 
0.4353754343147512

>  <deltaG>  (13) 
-11.041131430841062

>  <comRMSD>  (13) 
0.9390550160303565

>  <UFFGibbs>  (13) 
345.4099819276284

>  <strain_per_HA>  (13) 
19.1894434404238

>  <substructure_overlap_check>  (13) 
True

>  <energy_ratio_check>  (13) 
True

>  <const_energy/unconst_energy>  (13) 
0.9989339216916197

>  <sucos>  (13) 
0.5655988226892767

>  <interactions>  (13) 
Hydrophobic_VAL-84,HBDonor_SER-125,Hydrophobic_TYR-90,Hydrophobic_HIS-21,Hydrophobic_PRO-107,Hydrophobic_TYR-89,Hydrophobic_THR-126

>  <total_num_ints>  (13) 
7

>  <total_num_ints_nonhyd>  (13) 
1

>  <num_uniq_frag_ints>  (13) 
1

>  <num_repl_uniq_ints>  (13) 
1

>  <num_uniq_ints_lost>  (13) 
0

>  <num_new_uniq_ints>  (13) 
6

>  <int_check>  (13) 
True

>  <ref_url>  (13) 
https://pubs.acs.org/doi/10.1021/acs.jcim.3c00276?fig=tgr1&ref=pdf

>  <submitter_name>  (13) 
Steph Wills

>  <submitter_institution>  (13) 
University of Oxford

>  <submitter_email>  (13) 
stephanie.wills@balliol.ox.ac.uk

>  <generation_date>  (13) 
2023-11-23

>  <method>  (13) 
FragNetv2

>  <original SMILES>  (13) 
CCc1cnn(C)c1NC(=O)CC(CC)C(C)C

>  <original_name>  (13) 
x0556_0A-x0310_0A_31202_B1X

>  <ref_mols>  (13) 
x0556_0A,x0310_0A

>  <ref_pdb>  (13) 
x0310_0A

>  <rationale>  (13) 
FragNet: 1 round bioisosteric merging incl c1cn[nH]c1 and CCC(CC(=O)N[Xe])C(C)C replacing N#CCC(=O)N[Xe]

$$$$
x0556_0A-x0310_0A_9136_B1X
     RDKit          3D

 22 23  0  0  0  0  0  0  0  0999 V2000
   10.6390    9.1630   22.9300 C   0  0  0  0  0  0  0  0  0  0  0  0
    9.2580    9.0130   23.4420 C   0  0  0  0  0  0  0  0  0  0  0  0
    8.7370   10.2360   23.9860 N   0  0  0  0  0  0  0  0  0  0  0  0
    7.7360   10.1150   24.8720 N   0  0  0  0  0  0  0  0  0  0  0  0
    7.4070   11.3530   25.2230 C   0  0  0  0  0  0  0  0  0  0  0  0
    6.2690   11.5900   26.2210 C   0  0  0  0  0  0  0  0  0  0  0  0
    5.6130   12.9580   26.1800 C   0  0  0  0  0  0  0  0  0  0  0  0
    4.4790   13.3420   27.0880 C   0  0  0  0  0  0  0  0  0  0  0  0
    4.0510   12.2430   28.0470 C   0  0  0  0  0  0  0  0  0  0  0  0
    4.7700   10.9230   28.0030 C   0  0  0  0  0  0  0  0  0  0  0  0
    5.8120   10.6280   27.1390 C   0  0  0  0  0  0  0  0  0  0  0  0
    8.2150   12.2710   24.5630 C   0  0  0  0  0  0  0  0  0  0  0  0
    9.0750   11.5490   23.7690 C   0  0  0  0  0  0  0  0  0  0  0  0
   10.0660   12.2820   22.9520 N   0  0  0  0  0  0  0  0  0  0  0  0
   10.9470   13.2000   23.4680 C   0  0  0  0  0  0  0  0  0  0  0  0
   11.1510   13.3480   24.6600 O   0  0  0  0  0  0  0  0  0  0  0  0
   11.6020   14.0100   22.4820 C   0  0  0  0  0  0  0  0  0  0  0  0
   12.7550   13.6290   21.8540 C   0  0  0  0  0  0  0  0  0  0  0  0
   10.6030   14.5020   21.4440 C   0  0  0  0  0  0  0  0  0  0  0  0
   12.1930   15.2010   23.2380 C   0  0  0  0  0  0  0  0  0  0  0  0
   11.9170   16.3500   22.5940 F   0  0  0  0  0  0  0  0  0  0  0  0
   11.6620   15.2750   24.4860 F   0  0  0  0  0  0  0  0  0  0  0  0
  1  2  1  0
  2  3  1  0
  3  4  1  0
  4  5  2  0
  5  6  1  0
  6  7  2  0
  7  8  1  0
  8  9  2  0
  9 10  1  0
 10 11  2  0
  5 12  1  0
 12 13  2  0
 13 14  1  0
 14 15  1  0
 15 16  2  0
 15 17  1  0
 17 18  1  0
 17 19  1  0
 17 20  1  0
 20 21  1  0
 20 22  1  0
 13  3  1  0
 11  6  1  0
A    1
 C1 
A    2
 C2 
A    3
 N1 
A    4
 N2 
A    5
 C3 
A    6
 C4 
A    7
 C5 
A    8
 C6 
A    9
 C7 
A   10
 C8 
A   11
 C9 
A   12
 C10
A   13
 C11
A   14
 N3 
A   15
 C12
A   16
 O1 
A   17
 C13
A   18
 C14
A   19
 C15
A   20
 C16
A   21
 F1 
A   22
 F2 
M  END
>  <similarity>  (14) 
1.0

>  <smiles>  (14) 
CCn1nc(-c2ccccc2)cc1NC(=O)C(C)(C)C(F)F

>  <cmpd_id>  (14) 
ENAMINE:PV-002862252644

>  <used_subnode>  (14) 
c1cn[nH]c1

>  <used_synthon>  (14) 
CC(C)(C(=O)N[Xe])C(F)F

>  <ref_subnode>  (14) 
c1cn[nH]c1

>  <ref_synthon>  (14) 
N#CCC(=O)N[Xe]

>  <fragmentA>  (14) 
x0556_0A

>  <fragmentB>  (14) 
x0310_0A

>  <HA>  (14) 
22

>  <HBD>  (14) 
1

>  <HBA>  (14) 
3

>  <MW>  (14) 
307.149618668

>  <TPSA>  (14) 
46.92

>  <LogP>  (14) 
3.799800000000002

>  <RBs>  (14) 
5

>  <G_bound>  (14) 
-9.739392898792126

>  <G_unbound>  (14) 
0.7172737210750083

>  <deltaG>  (14) 
-10.456666619867134

>  <comRMSD>  (14) 
0.4229856659381258

>  <UFFGibbs>  (14) 
190.6533252810762

>  <strain_per_HA>  (14) 
8.66606024004892

>  <substructure_overlap_check>  (14) 
True

>  <energy_ratio_check>  (14) 
True

>  <const_energy/unconst_energy>  (14) 
1.0000020534106573

>  <sucos>  (14) 
0.5698900348560549

>  <interactions>  (14) 
HBDonor_SER-125,Hydrophobic_TYR-90,Hydrophobic_HIS-21,Hydrophobic_PRO-107,Hydrophobic_CYS-110,Hydrophobic_VAL-124

>  <total_num_ints>  (14) 
6

>  <total_num_ints_nonhyd>  (14) 
1

>  <num_uniq_frag_ints>  (14) 
1

>  <num_repl_uniq_ints>  (14) 
1

>  <num_uniq_ints_lost>  (14) 
0

>  <num_new_uniq_ints>  (14) 
5

>  <int_check>  (14) 
True

>  <ref_url>  (14) 
https://pubs.acs.org/doi/10.1021/acs.jcim.3c00276?fig=tgr1&ref=pdf

>  <submitter_name>  (14) 
Steph Wills

>  <submitter_institution>  (14) 
University of Oxford

>  <submitter_email>  (14) 
stephanie.wills@balliol.ox.ac.uk

>  <generation_date>  (14) 
2023-11-23

>  <method>  (14) 
FragNetv2

>  <original SMILES>  (14) 
CCn1nc(-c2ccccc2)cc1NC(=O)C(C)(C)C(F)F

>  <original_name>  (14) 
x0556_0A-x0310_0A_9136_B1X

>  <ref_mols>  (14) 
x0556_0A,x0310_0A

>  <ref_pdb>  (14) 
x0310_0A

>  <rationale>  (14) 
FragNet: 1 round bioisosteric merging incl c1cn[nH]c1 and CC(C)(C(=O)N[Xe])C(F)F replacing N#CCC(=O)N[Xe]

$$$$
x0556_0A-x0310_0A_48196_B1X
     RDKit          3D

 20 20  0  0  0  0  0  0  0  0999 V2000
   11.9210   13.5930   22.7660 C   0  0  0  0  0  0  0  0  0  0  0  0
   10.7250   13.2560   23.6590 C   0  0  0  0  0  0  0  0  0  0  0  0
   10.8130   13.8700   24.9600 O   0  0  0  0  0  0  0  0  0  0  0  0
    9.6740   12.3960   23.0860 N   0  0  0  0  0  0  0  0  0  0  0  0
    8.8030   11.6860   23.9390 C   0  0  0  0  0  0  0  0  0  0  0  0
    8.8400   10.2980   24.1510 N   0  0  0  0  0  0  0  0  0  0  0  0
    7.8840    9.9450   25.0070 N   0  0  0  0  0  0  0  0  0  0  0  0
    7.1570   11.0860   25.4140 C   0  0  0  0  0  0  0  0  0  0  0  0
    5.9800   11.0040   26.4070 C   0  0  0  0  0  0  0  0  0  0  0  0
    5.5150   12.2330   26.7790 O   0  0  0  0  0  0  0  0  0  0  0  0
    5.4820    9.7770   26.8490 N   0  0  0  0  0  0  0  0  0  0  0  0
    4.7880    9.6390   28.1180 C   0  0  0  0  0  0  0  0  0  0  0  0
    3.5660    8.7070   28.0520 C   0  0  0  0  0  0  0  0  0  0  0  0
    4.2100    7.7820   28.9450 C   0  0  0  0  0  0  0  0  0  0  0  0
    2.2180    9.2780   28.4170 C   0  0  0  0  0  0  0  0  0  0  0  0
    3.3810    7.8680   26.7840 C   0  0  0  0  0  0  0  0  0  0  0  0
    3.2570    6.3660   26.9870 C   0  0  0  0  0  0  0  0  0  0  0  0
    4.3450    5.8080   27.1060 O   0  0  0  0  0  0  0  0  0  0  0  0
    7.7500   12.1810   24.7280 C   0  0  0  0  0  0  0  0  0  0  0  0
    7.2270   13.9740   24.8470 Br  0  0  0  0  0  0  0  0  0  0  0  0
  1  2  1  0
  2  3  2  0
  2  4  1  0
  4  5  1  0
  5  6  1  0
  6  7  1  0
  7  8  2  0
  8  9  1  0
  9 10  2  0
  9 11  1  0
 11 12  1  0
 12 13  1  0
 13 14  1  0
 13 15  1  0
 13 16  1  0
 16 17  1  0
 17 18  1  0
  8 19  1  0
 19 20  1  0
 19  5  2  0
A    1
 C1 
A    2
 C2 
A    3
 O1 
A    4
 N1 
A    5
 C3 
A    6
 N2 
A    7
 N3 
A    8
 C4 
A    9
 C5 
A   10
 O2 
A   11
 N4 
A   12
 C6 
A   13
 C7 
A   14
 C8 
A   15
 C9 
A   16
 C10
A   17
 C11
A   18
 O3 
A   19
 C12
A   20
BR1 
M  END
>  <similarity>  (15) 
1.0

>  <smiles>  (15) 
CC(=O)Nc1[nH]nc(C(=O)NCC(C)(C)CCO)c1Br

>  <cmpd_id>  (15) 
ENAMINE:PV-002895096027

>  <used_subnode>  (15) 
c1cn[nH]c1

>  <used_synthon>  (15) 
CC(=O)N[Xe]

>  <ref_subnode>  (15) 
c1cn[nH]c1

>  <ref_synthon>  (15) 
N#CCC(=O)N[Xe]

>  <fragmentA>  (15) 
x0556_0A

>  <fragmentB>  (15) 
x0310_0A

>  <HA>  (15) 
20

>  <HBD>  (15) 
4

>  <HBA>  (15) 
4

>  <MW>  (15) 
346.064052568

>  <TPSA>  (15) 
107.11

>  <LogP>  (15) 
1.2689999999999995

>  <RBs>  (15) 
6

>  <G_bound>  (15) 
-6.893382757861623

>  <G_unbound>  (15) 
0.9806040326300199

>  <deltaG>  (15) 
-7.873986790491643

>  <comRMSD>  (15) 
0.4326848965528421

>  <UFFGibbs>  (15) 
206.28321112404936

>  <strain_per_HA>  (15) 
10.314160556202468

>  <substructure_overlap_check>  (15) 
True

>  <energy_ratio_check>  (15) 
True

>  <const_energy/unconst_energy>  (15) 
1.0507049339361816

>  <sucos>  (15) 
0.6080313414600792

>  <interactions>  (15) 
Hydrophobic_HIS-21,HBAcceptor_SER-105,HBDonor_SER-105,Hydrophobic_PRO-107,Hydrophobic_GLU-106

>  <total_num_ints>  (15) 
5

>  <total_num_ints_nonhyd>  (15) 
2

>  <num_uniq_frag_ints>  (15) 
1

>  <num_repl_uniq_ints>  (15) 
1

>  <num_uniq_ints_lost>  (15) 
0

>  <num_new_uniq_ints>  (15) 
4

>  <int_check>  (15) 
True

>  <ref_url>  (15) 
https://pubs.acs.org/doi/10.1021/acs.jcim.3c00276?fig=tgr1&ref=pdf

>  <submitter_name>  (15) 
Steph Wills

>  <submitter_institution>  (15) 
University of Oxford

>  <submitter_email>  (15) 
stephanie.wills@balliol.ox.ac.uk

>  <generation_date>  (15) 
2023-11-23

>  <method>  (15) 
FragNetv2

>  <original SMILES>  (15) 
CC(=O)Nc1[nH]nc(C(=O)NCC(C)(C)CCO)c1Br

>  <original_name>  (15) 
x0556_0A-x0310_0A_48196_B1X

>  <ref_mols>  (15) 
x0556_0A,x0310_0A

>  <ref_pdb>  (15) 
x0310_0A

>  <rationale>  (15) 
FragNet: 1 round bioisosteric merging incl c1cn[nH]c1 and CC(=O)N[Xe] replacing N#CCC(=O)N[Xe]

$$$$
x0556_0A-x0310_0A_27917_B1X
     RDKit          3D

 19 19  0  0  0  0  0  0  0  0999 V2000
   11.7360   13.4450   22.8860 C   0  0  0  0  0  0  0  0  0  0  0  0
   10.5310   13.1980   23.7920 C   0  0  0  0  0  0  0  0  0  0  0  0
   10.6940   13.8220   25.0580 O   0  0  0  0  0  0  0  0  0  0  0  0
    9.4150   12.4220   23.2610 N   0  0  0  0  0  0  0  0  0  0  0  0
    8.5890   11.6940   24.0860 C   0  0  0  0  0  0  0  0  0  0  0  0
    8.6720   10.3620   24.2740 N   0  0  0  0  0  0  0  0  0  0  0  0
    7.7020    9.9140   25.1440 N   0  0  0  0  0  0  0  0  0  0  0  0
    6.9200   10.9400   25.5800 C   0  0  0  0  0  0  0  0  0  0  0  0
    5.7110   10.8180   26.5620 C   0  0  0  0  0  0  0  0  0  0  0  0
    4.8280   11.8520   26.3880 O   0  0  0  0  0  0  0  0  0  0  0  0
    5.4980    9.8410   27.5900 N   0  0  0  0  0  0  0  0  0  0  0  0
    6.1670   10.0650   28.7860 C   0  0  0  0  0  0  0  0  0  0  0  0
    4.1180    9.3210   28.0030 C   0  0  1  0  0  0  0  0  0  0  0  0
    3.2120   10.3460   28.3740 C   0  0  0  0  0  0  0  0  0  0  0  0
    3.3480    8.4390   27.2060 C   0  0  0  0  0  0  0  0  0  0  0  0
    3.9440    7.4470   26.5280 N   0  0  0  0  0  0  0  0  0  0  0  0
    1.9650    8.5190   27.0700 O   0  0  0  0  0  0  0  0  0  0  0  0
    7.4120   12.1240   24.9650 C   0  0  0  0  0  0  0  0  0  0  0  0
    6.7580   13.8450   25.1710 Br  0  0  0  0  0  0  0  0  0  0  0  0
  1  2  1  0
  2  3  2  0
  2  4  1  0
  4  5  1  0
  5  6  1  0
  6  7  1  0
  7  8  2  0
  8  9  1  0
  9 10  2  0
  9 11  1  0
 11 12  1  0
 11 13  1  0
 13 14  1  6
 13 15  1  0
 15 16  1  0
 15 17  2  0
  8 18  1  0
 18 19  1  0
 18  5  2  0
A    1
 C1 
A    2
 C2 
A    3
 O1 
A    4
 N1 
A    5
 C3 
A    6
 N2 
A    7
 N3 
A    8
 C4 
A    9
 C5 
A   10
 O2 
A   11
 N4 
A   12
 C6 
A   13
 C7 
A   14
 C8 
A   15
 C9 
A   16
 N5 
A   17
 O3 
A   18
 C10
A   19
BR1 
M  END
>  <similarity>  (16) 
1.0

>  <smiles>  (16) 
CC(=O)Nc1[nH]nc(C(=O)N(C)C(C)C(N)=O)c1Br

>  <cmpd_id>  (16) 
ENAMINE:PV-003031505296,ENAMINE:PV-003876662202

>  <used_subnode>  (16) 
c1cn[nH]c1

>  <used_synthon>  (16) 
CC(=O)N[Xe]

>  <ref_subnode>  (16) 
c1cn[nH]c1

>  <ref_synthon>  (16) 
N#CCC(=O)N[Xe]

>  <fragmentA>  (16) 
x0556_0A

>  <fragmentB>  (16) 
x0310_0A

>  <HA>  (16) 
19

>  <HBD>  (16) 
3

>  <HBA>  (16) 
4

>  <MW>  (16) 
331.02800140799997

>  <TPSA>  (16) 
121.17999999999998

>  <LogP>  (16) 
0.07639999999999969

>  <RBs>  (16) 
4

>  <G_bound>  (16) 
-5.899425437170912

>  <G_unbound>  (16) 
1.3374160079513309

>  <deltaG>  (16) 
-7.236841445122243

>  <comRMSD>  (16) 
0.6053950999224299

>  <UFFGibbs>  (16) 
198.6292061089266

>  <strain_per_HA>  (16) 
10.454168742575085

>  <substructure_overlap_check>  (16) 
True

>  <energy_ratio_check>  (16) 
True

>  <const_energy/unconst_energy>  (16) 
1.0495693212325745

>  <sucos>  (16) 
0.5008151959811898

>  <interactions>  (16) 
Hydrophobic_HIS-21,HBDonor_SER-105,Hydrophobic_PRO-107

>  <total_num_ints>  (16) 
3

>  <total_num_ints_nonhyd>  (16) 
1

>  <num_uniq_frag_ints>  (16) 
1

>  <num_repl_uniq_ints>  (16) 
1

>  <num_uniq_ints_lost>  (16) 
0

>  <num_new_uniq_ints>  (16) 
2

>  <int_check>  (16) 
True

>  <ref_url>  (16) 
https://pubs.acs.org/doi/10.1021/acs.jcim.3c00276?fig=tgr1&ref=pdf

>  <submitter_name>  (16) 
Steph Wills

>  <submitter_institution>  (16) 
University of Oxford

>  <submitter_email>  (16) 
stephanie.wills@balliol.ox.ac.uk

>  <generation_date>  (16) 
2023-11-23

>  <method>  (16) 
FragNetv2

>  <original SMILES>  (16) 
CC(=O)Nc1[nH]nc(C(=O)N(C)C(C)C(N)=O)c1Br

>  <original_name>  (16) 
x0556_0A-x0310_0A_27917_B1X

>  <ref_mols>  (16) 
x0556_0A,x0310_0A

>  <ref_pdb>  (16) 
x0310_0A

>  <rationale>  (16) 
FragNet: 1 round bioisosteric merging incl c1cn[nH]c1 and CC(=O)N[Xe] replacing N#CCC(=O)N[Xe]

$$$$
x0556_0A-x0310_0A_22561_B1X
     RDKit          3D

 17 17  0  0  0  0  0  0  0  0999 V2000
    5.6560   12.1700   26.3000 C   0  0  0  0  0  0  0  0  0  0  0  0
    6.3800   10.8430   26.2310 C   0  0  0  0  0  0  0  0  0  0  0  0
    7.4830   10.8310   25.1890 C   0  0  0  0  0  0  0  0  0  0  0  0
    7.9860   11.9870   24.5980 C   0  0  0  0  0  0  0  0  0  0  0  0
    8.9490   11.6470   23.7030 C   0  0  0  0  0  0  0  0  0  0  0  0
    9.6170   12.5940   22.9680 N   0  0  0  0  0  0  0  0  0  0  0  0
   10.6750   13.2750   23.4880 C   0  0  0  0  0  0  0  0  0  0  0  0
   10.8270   13.6260   24.6460 O   0  0  0  0  0  0  0  0  0  0  0  0
   11.6340   13.5020   22.3410 C   0  0  0  0  0  0  0  0  0  0  0  0
   12.5210   14.4280   22.7460 C   0  0  0  0  0  0  0  0  0  0  0  0
   12.0410   15.2990   23.8370 C   0  0  0  0  0  0  0  0  0  0  0  0
   13.1930   15.2720   21.9090 C   0  0  0  0  0  0  0  0  0  0  0  0
   13.4850   13.9300   23.8620 C   0  0  0  0  0  0  0  0  0  0  0  0
   14.1480   13.5670   24.7460 N   0  0  0  0  0  0  0  0  0  0  0  0
    9.0050   10.2970   23.7730 N   0  0  0  0  0  0  0  0  0  0  0  0
    9.8010    9.4350   23.0690 C   0  0  0  0  0  0  0  0  0  0  0  0
    8.1180    9.7620   24.6830 N   0  0  0  0  0  0  0  0  0  0  0  0
  1  2  1  0
  2  3  1  0
  3  4  1  0
  4  5  2  0
  5  6  1  0
  6  7  1  0
  7  8  2  0
  7  9  1  0
  9 10  1  0
 10 11  1  0
 10 12  1  0
 10 13  1  0
 13 14  3  0
  5 15  1  0
 15 16  1  0
 15 17  1  0
 17  3  2  0
A    1
 C1 
A    2
 C2 
A    3
 C3 
A    4
 C4 
A    5
 C5 
A    6
 N1 
A    7
 C6 
A    8
 O1 
A    9
 C7 
A   10
 C8 
A   11
 C9 
A   12
 C10
A   13
 C11
A   14
 N2 
A   15
 N3 
A   16
 C12
A   17
 N4 
M  END
>  <similarity>  (17) 
1.0

>  <smiles>  (17) 
CCc1cc(NC(=O)CC(C)(C)C#N)n(C)n1

>  <cmpd_id>  (17) 
ENAMINE:Z1900087782

>  <used_subnode>  (17) 
c1cn[nH]c1

>  <used_synthon>  (17) 
CC(C)(C#N)CC(=O)N[Xe]

>  <ref_subnode>  (17) 
c1cn[nH]c1

>  <ref_synthon>  (17) 
N#CCC(=O)N[Xe]

>  <fragmentA>  (17) 
x0556_0A

>  <fragmentB>  (17) 
x0310_0A

>  <HA>  (17) 
17

>  <HBD>  (17) 
1

>  <HBA>  (17) 
4

>  <MW>  (17) 
234.148061196

>  <TPSA>  (17) 
70.71000000000001

>  <LogP>  (17) 
1.8608799999999999

>  <RBs>  (17) 
4

>  <G_bound>  (17) 
-10.258188589825641

>  <G_unbound>  (17) 
0.5079200815366327

>  <deltaG>  (17) 
-10.766108671362273

>  <comRMSD>  (17) 
0.5763071942764764

>  <UFFGibbs>  (17) 
527.7047549852186

>  <strain_per_HA>  (17) 
31.0414561756011

>  <substructure_overlap_check>  (17) 
True

>  <energy_ratio_check>  (17) 
True

>  <const_energy/unconst_energy>  (17) 
0.9540757630987785

>  <sucos>  (17) 
0.5014064080698328

>  <interactions>  (17) 
HBDonor_SER-125,Hydrophobic_TYR-90,Hydrophobic_HIS-21,Hydrophobic_PRO-107,Hydrophobic_TYR-89

>  <total_num_ints>  (17) 
5

>  <total_num_ints_nonhyd>  (17) 
1

>  <num_uniq_frag_ints>  (17) 
1

>  <num_repl_uniq_ints>  (17) 
1

>  <num_uniq_ints_lost>  (17) 
0

>  <num_new_uniq_ints>  (17) 
4

>  <int_check>  (17) 
True

>  <ref_url>  (17) 
https://pubs.acs.org/doi/10.1021/acs.jcim.3c00276?fig=tgr1&ref=pdf

>  <submitter_name>  (17) 
Steph Wills

>  <submitter_institution>  (17) 
University of Oxford

>  <submitter_email>  (17) 
stephanie.wills@balliol.ox.ac.uk

>  <generation_date>  (17) 
2023-11-23

>  <method>  (17) 
FragNetv2

>  <original SMILES>  (17) 
CCc1cc(NC(=O)CC(C)(C)C#N)n(C)n1

>  <original_name>  (17) 
x0556_0A-x0310_0A_22561_B1X

>  <ref_mols>  (17) 
x0556_0A,x0310_0A

>  <ref_pdb>  (17) 
x0310_0A

>  <rationale>  (17) 
FragNet: 1 round bioisosteric merging incl c1cn[nH]c1 and CC(C)(C#N)CC(=O)N[Xe] replacing N#CCC(=O)N[Xe]

$$$$
x0556_0A-x0310_0A_23097_B1X
     RDKit          3D

 24 26  0  0  0  0  0  0  0  0999 V2000
   10.0190    9.4330   22.9670 C   0  0  0  0  0  0  0  0  0  0  0  0
    9.1290   10.1740   23.7080 N   0  0  0  0  0  0  0  0  0  0  0  0
    8.3400    9.5010   24.5740 N   0  0  0  0  0  0  0  0  0  0  0  0
    7.6100   10.4380   25.1140 C   0  0  0  0  0  0  0  0  0  0  0  0
    7.9250   11.7890   24.5820 C   0  0  0  0  0  0  0  0  0  0  0  0
    7.1060   12.9590   25.1380 C   0  0  0  0  0  0  0  0  0  0  0  0
    6.6200   13.9490   24.4090 N   0  0  0  0  0  0  0  0  0  0  0  0
    5.9280   14.7430   25.2770 C   0  0  0  0  0  0  0  0  0  0  0  0
    5.1540   15.9920   25.0440 C   0  0  0  0  0  0  0  0  0  0  0  0
    4.4120   16.7870   26.1380 C   0  0  0  0  0  0  0  0  0  0  0  0
    4.5670   16.1370   27.5230 C   0  0  0  0  0  0  0  0  0  0  0  0
    5.2970   14.9540   27.7530 C   0  0  0  0  0  0  0  0  0  0  0  0
    5.9800   14.2670   26.5720 C   0  0  0  0  0  0  0  0  0  0  0  0
    6.7630   13.0920   26.4560 N   0  0  0  0  0  0  0  0  0  0  0  0
    8.9420   11.5570   23.6590 C   0  0  0  0  0  0  0  0  0  0  0  0
    9.5970   12.4370   22.8750 N   0  0  0  0  0  0  0  0  0  0  0  0
   10.6020   13.1020   23.4060 C   0  0  0  0  0  0  0  0  0  0  0  0
   10.6920   13.3750   24.5920 O   0  0  0  0  0  0  0  0  0  0  0  0
   11.6710   13.5370   22.4360 C   0  0  0  0  0  0  0  0  0  0  0  0
   12.6750   14.4130   23.1140 C   0  0  0  0  0  0  0  0  0  0  0  0
   11.8730   15.4760   23.5650 C   0  0  0  0  0  0  0  0  0  0  0  0
   13.4200   14.1090   24.2350 C   0  0  0  0  0  0  0  0  0  0  0  0
   13.3550   15.0880   22.0300 C   0  0  0  0  0  0  0  0  0  0  0  0
   13.7550   15.6670   21.1410 N   0  0  0  0  0  0  0  0  0  0  0  0
  1  2  1  0
  2  3  1  0
  3  4  2  0
  4  5  1  0
  5  6  1  0
  6  7  2  0
  7  8  1  0
  8  9  2  0
  9 10  1  0
 10 11  2  0
 11 12  1  0
 12 13  2  0
 13 14  1  0
  5 15  2  0
 15 16  1  0
 16 17  1  0
 17 18  2  0
 17 19  1  0
 19 20  1  0
 20 21  1  0
 20 22  1  0
 20 23  1  0
 23 24  3  0
 15  2  1  0
 14  6  1  0
 13  8  1  0
A    1
 C1 
A    2
 N1 
A    3
 N2 
A    4
 C2 
A    5
 C3 
A    6
 C4 
A    7
 N3 
A    8
 C5 
A    9
 C6 
A   10
 C7 
A   11
 C8 
A   12
 C9 
A   13
 C10
A   14
 N4 
A   15
 C11
A   16
 N5 
A   17
 C12
A   18
 O1 
A   19
 C13
A   20
 C14
A   21
 C15
A   22
 C16
A   23
 C17
A   24
 N6 
M  END
>  <similarity>  (18) 
1.0

>  <smiles>  (18) 
Cn1ncc(-c2nc3ccccc3[nH]2)c1NC(=O)CC(C)(C)C#N

>  <cmpd_id>  (18) 
ENAMINE:Z2474805334

>  <used_subnode>  (18) 
c1cn[nH]c1

>  <used_synthon>  (18) 
CC(C)(C#N)CC(=O)N[Xe]

>  <ref_subnode>  (18) 
c1cn[nH]c1

>  <ref_synthon>  (18) 
N#CCC(=O)N[Xe]

>  <fragmentA>  (18) 
x0556_0A

>  <fragmentB>  (18) 
x0310_0A

>  <HA>  (18) 
24

>  <HBD>  (18) 
2

>  <HBA>  (18) 
5

>  <MW>  (18) 
322.154209196

>  <TPSA>  (18) 
99.38999999999999

>  <LogP>  (18) 
2.841780000000001

>  <RBs>  (18) 
4

>  <G_bound>  (18) 
-8.443546533898711

>  <G_unbound>  (18) 
1.3525064490366725

>  <deltaG>  (18) 
-9.796052982935384

>  <comRMSD>  (18) 
0.5896877227686068

>  <UFFGibbs>  (18) 
266.30281386208844

>  <strain_per_HA>  (18) 
11.095950577587018

>  <substructure_overlap_check>  (18) 
True

>  <energy_ratio_check>  (18) 
True

>  <const_energy/unconst_energy>  (18) 
1.0237127155532226

>  <sucos>  (18) 
0.5015496753496951

>  <interactions>  (18) 
HBDonor_SER-125,Hydrophobic_HIS-21,Hydrophobic_GLU-85,Hydrophobic_PRO-107,Hydrophobic_TYR-89

>  <total_num_ints>  (18) 
5

>  <total_num_ints_nonhyd>  (18) 
1

>  <num_uniq_frag_ints>  (18) 
1

>  <num_repl_uniq_ints>  (18) 
1

>  <num_uniq_ints_lost>  (18) 
0

>  <num_new_uniq_ints>  (18) 
4

>  <int_check>  (18) 
True

>  <ref_url>  (18) 
https://pubs.acs.org/doi/10.1021/acs.jcim.3c00276?fig=tgr1&ref=pdf

>  <submitter_name>  (18) 
Steph Wills

>  <submitter_institution>  (18) 
University of Oxford

>  <submitter_email>  (18) 
stephanie.wills@balliol.ox.ac.uk

>  <generation_date>  (18) 
2023-11-23

>  <method>  (18) 
FragNetv2

>  <original SMILES>  (18) 
Cn1ncc(-c2nc3ccccc3[nH]2)c1NC(=O)CC(C)(C)C#N

>  <original_name>  (18) 
x0556_0A-x0310_0A_23097_B1X

>  <ref_mols>  (18) 
x0556_0A,x0310_0A

>  <ref_pdb>  (18) 
x0310_0A

>  <rationale>  (18) 
FragNet: 1 round bioisosteric merging incl c1cn[nH]c1 and CC(C)(C#N)CC(=O)N[Xe] replacing N#CCC(=O)N[Xe]

$$$$
x0556_0A-x0310_0A_30200_B1X
     RDKit          3D

 21 21  0  0  0  0  0  0  0  0999 V2000
   11.8930   13.6410   22.6930 C   0  0  0  0  0  0  0  0  0  0  0  0
   10.7340   13.2910   23.5750 C   0  0  0  0  0  0  0  0  0  0  0  0
   10.8910   13.8520   24.8730 O   0  0  0  0  0  0  0  0  0  0  0  0
    9.6920   12.5240   23.0810 N   0  0  0  0  0  0  0  0  0  0  0  0
    8.8470   11.8360   23.9420 C   0  0  0  0  0  0  0  0  0  0  0  0
    8.7940   10.4790   24.1040 N   0  0  0  0  0  0  0  0  0  0  0  0
    7.8760   10.0800   25.0230 N   0  0  0  0  0  0  0  0  0  0  0  0
    7.3160   11.2100   25.4740 C   0  0  0  0  0  0  0  0  0  0  0  0
    6.2160   11.1940   26.5620 C   0  0  0  0  0  0  0  0  0  0  0  0
    5.4400   10.2570   26.7230 O   0  0  0  0  0  0  0  0  0  0  0  0
    6.1700   12.3230   27.3910 N   0  0  0  0  0  0  0  0  0  0  0  0
    4.9300   12.8100   27.9830 C   0  0  0  0  0  0  0  0  0  0  0  0
    3.7690   12.6220   26.9810 C   0  0  1  0  0  0  0  0  0  0  0  0
    2.9860   11.8150   28.0680 C   0  0  0  0  0  0  0  0  0  0  0  0
    1.6110   11.5130   27.7230 O   0  0  0  0  0  0  0  0  0  0  0  0
    3.1000   13.9500   26.5260 C   0  0  0  0  0  0  0  0  0  0  0  0
    3.1800   15.1130   27.3150 C   0  0  0  0  0  0  0  0  0  0  0  0
    3.7160   14.3380   25.1590 C   0  0  0  0  0  0  0  0  0  0  0  0
    1.5990   13.6890   26.2520 C   0  0  0  0  0  0  0  0  0  0  0  0
    7.8990   12.3180   24.8090 C   0  0  0  0  0  0  0  0  0  0  0  0
    7.4750   14.1270   25.0630 Br  0  0  0  0  0  0  0  0  0  0  0  0
  1  2  1  0
  2  3  2  0
  2  4  1  0
  4  5  1  0
  5  6  1  0
  6  7  1  0
  7  8  2  0
  8  9  1  0
  9 10  2  0
  9 11  1  0
 11 12  1  0
 13 12  1  1
 13 14  1  0
 14 15  1  0
 13 16  1  0
 16 17  1  0
 16 18  1  0
 16 19  1  0
  8 20  1  0
 20 21  1  0
 20  5  2  0
A    1
 C1 
A    2
 C2 
A    3
 O1 
A    4
 N1 
A    5
 C3 
A    6
 N2 
A    7
 N3 
A    8
 C4 
A    9
 C5 
A   10
 O2 
A   11
 N4 
A   12
 C6 
A   13
 C7 
A   14
 C8 
A   15
 O3 
A   16
 C9 
A   17
 C10
A   18
 C11
A   19
 C12
A   20
 C13
A   21
BR1 
M  END
>  <similarity>  (19) 
1.0

>  <smiles>  (19) 
CC(=O)Nc1[nH]nc(C(=O)NCC(CO)C(C)(C)C)c1Br

>  <cmpd_id>  (19) 
ENAMINE:PV-004045193077

>  <used_subnode>  (19) 
c1cn[nH]c1

>  <used_synthon>  (19) 
CC(=O)N[Xe]

>  <ref_subnode>  (19) 
c1cn[nH]c1

>  <ref_synthon>  (19) 
N#CCC(=O)N[Xe]

>  <fragmentA>  (19) 
x0556_0A

>  <fragmentB>  (19) 
x0310_0A

>  <HA>  (19) 
21

>  <HBD>  (19) 
4

>  <HBA>  (19) 
4

>  <MW>  (19) 
360.079702632

>  <TPSA>  (19) 
107.11

>  <LogP>  (19) 
1.5149999999999995

>  <RBs>  (19) 
5

>  <G_bound>  (19) 
-6.394137072967375

>  <G_unbound>  (19) 
1.9068301661483054

>  <deltaG>  (19) 
-8.30096723911568

>  <comRMSD>  (19) 
0.7698670960150392

>  <UFFGibbs>  (19) 
204.86373710271715

>  <strain_per_HA>  (19) 
9.755416052510341

>  <substructure_overlap_check>  (19) 
True

>  <energy_ratio_check>  (19) 
True

>  <const_energy/unconst_energy>  (19) 
1.08934775752606

>  <sucos>  (19) 
0.5017986435215479

>  <interactions>  (19) 
Hydrophobic_HIS-21,Hydrophobic_GLU-85,Hydrophobic_PRO-107,HBAcceptor_ASN-129

>  <total_num_ints>  (19) 
4

>  <total_num_ints_nonhyd>  (19) 
1

>  <num_uniq_frag_ints>  (19) 
1

>  <num_repl_uniq_ints>  (19) 
1

>  <num_uniq_ints_lost>  (19) 
0

>  <num_new_uniq_ints>  (19) 
3

>  <int_check>  (19) 
True

>  <ref_url>  (19) 
https://pubs.acs.org/doi/10.1021/acs.jcim.3c00276?fig=tgr1&ref=pdf

>  <submitter_name>  (19) 
Steph Wills

>  <submitter_institution>  (19) 
University of Oxford

>  <submitter_email>  (19) 
stephanie.wills@balliol.ox.ac.uk

>  <generation_date>  (19) 
2023-11-23

>  <method>  (19) 
FragNetv2

>  <original SMILES>  (19) 
CC(=O)Nc1[nH]nc(C(=O)NCC(CO)C(C)(C)C)c1Br

>  <original_name>  (19) 
x0556_0A-x0310_0A_30200_B1X

>  <ref_mols>  (19) 
x0556_0A,x0310_0A

>  <ref_pdb>  (19) 
x0310_0A

>  <rationale>  (19) 
FragNet: 1 round bioisosteric merging incl c1cn[nH]c1 and CC(=O)N[Xe] replacing N#CCC(=O)N[Xe]

$$$$
x0556_0A-x0310_0A_48945-0_B2S
     RDKit          3D

 23 24  0  0  0  0  0  0  0  0999 V2000
   12.4350   13.9570   22.9070 C   0  0  0  0  0  0  0  0  0  0  0  0
   11.2320   13.3180   23.5970 C   0  0  0  0  0  0  0  0  0  0  0  0
   11.0470   13.4540   24.7920 O   0  0  0  0  0  0  0  0  0  0  0  0
   10.4400   12.6620   22.7210 N   0  0  0  0  0  0  0  0  0  0  0  0
    9.4010   13.4010   22.3430 C   0  0  0  0  0  0  0  0  0  0  0  0
    8.1780   13.4030   22.7730 N   0  0  0  0  0  0  0  0  0  0  0  0
    7.4640   14.3580   22.0840 C   0  0  0  0  0  0  0  0  0  0  0  0
    6.0410   14.5800   22.3980 C   0  0  0  0  0  0  0  0  0  0  0  0
    5.1220   14.1570   21.7140 O   0  0  0  0  0  0  0  0  0  0  0  0
    5.8500   15.3130   23.5430 N   0  0  0  0  0  0  0  0  0  0  0  0
    5.2950   14.7280   24.7430 C   0  0  0  0  0  0  0  0  0  0  0  0
    6.2330   13.9250   25.4230 C   0  0  0  0  0  0  0  0  0  0  0  0
    5.5640   12.7610   26.0080 N   0  0  0  0  0  0  0  0  0  0  0  0
    4.2790   13.0270   26.6360 C   0  0  0  0  0  0  0  0  0  0  0  0
    6.3760   11.6610   26.3460 C   0  0  0  0  0  0  0  0  0  0  0  0
    6.2610   11.1430   27.4600 O   0  0  0  0  0  0  0  0  0  0  0  0
    7.3760   11.1000   25.3950 C   0  0  0  0  0  0  0  0  0  0  0  0
    8.3040   11.8590   24.6300 C   0  0  0  0  0  0  0  0  0  0  0  0
    9.0290   10.9480   23.8920 C   0  0  0  0  0  0  0  0  0  0  0  0
    8.5350    9.7330   24.2270 N   0  0  0  0  0  0  0  0  0  0  0  0
    7.5460    9.8000   25.1260 N   0  0  0  0  0  0  0  0  0  0  0  0
    8.2350   15.0340   21.1360 C   0  0  0  0  0  0  0  0  0  0  0  0
    9.8350   14.4770   21.1090 S   0  0  0  0  0  0  0  0  0  0  0  0
  1  2  1  0
  2  3  2  0
  2  4  1  0
  4  5  1  0
  5  6  2  0
  6  7  1  0
  7  8  1  0
  8  9  2  0
  8 10  1  0
 10 11  1  0
 11 12  1  0
 12 13  1  0
 13 14  1  0
 13 15  1  0
 15 16  2  0
 15 17  1  0
 17 18  1  0
 18 19  2  0
 19 20  1  0
 20 21  1  0
  7 22  2  0
 22 23  1  0
 23  5  1  0
 21 17  2  0
A    1
 C1 
A    2
 C2 
A    3
 O1 
A    4
 N1 
A    5
 C3 
A    6
 N2 
A    7
 C4 
A    8
 C5 
A    9
 O2 
A   10
 N3 
A   11
 C6 
A   12
 C7 
A   13
 N4 
A   14
 C8 
A   15
 C9 
A   16
 O3 
A   17
 C10
A   18
 C11
A   19
 C12
A   20
 N5 
A   21
 N6 
A   22
 C13
A   23
 S1 
M  END
>  <similarity>  (20) 
1.0

>  <smiles>  (20) 
CC(=O)Nc1nc(C(=O)NCCN(C)C(=O)c2cc[nH]n2)cs1

>  <cmpd_id>  (20) 
ENAMINE:PV-001437842079

>  <used_subnode>  (20) 
[Xe]c1cn[nH]c1

>  <used_synthon>  (20) 
CC(=O)N[Xe]

>  <ref_subnode>  (20) 
[Xe]c1cn[nH]c1

>  <ref_synthon>  (20) 
N#CCC(=O)N[Xe]

>  <fragmentA>  (20) 
x0556_0A

>  <fragmentB>  (20) 
x0310_0A

>  <rev_synthon>  (20) 
[Xe]c1cc[nH]n1

>  <intermed_node1>  (20) 
CC(=O)Nc1nc(C(=O)NCCN(C)C=O)cs1

>  <HA>  (20) 
23

>  <HBD>  (20) 
3

>  <HBA>  (20) 
6

>  <MW>  (20) 
336.10045937200005

>  <TPSA>  (20) 
120.08

>  <LogP>  (20) 
0.3266000000000003

>  <RBs>  (20) 
6

>  <G_bound>  (20) 
-4.670952500978889

>  <G_unbound>  (20) 
1.1280663191379734

>  <deltaG>  (20) 
-5.799018820116863

>  <comRMSD>  (20) 
0.5385485973213905

>  <substructure_overlap_check>  (20) 
True

>  <energy_ratio_check>  (20) 
True

>  <const_energy/unconst_energy>  (20) 
4.288818776016654

>  <sucos>  (20) 
0.502300034606157

>  <interactions>  (20) 
Hydrophobic_HIS-21,HBDonor_SER-125,Hydrophobic_THR-126,HBAcceptor_GLY-127,Hydrophobic_VAL-84,HBDonor_SER-105,Hydrophobic_PRO-107

>  <total_num_ints>  (20) 
7

>  <total_num_ints_nonhyd>  (20) 
3

>  <num_uniq_frag_ints>  (20) 
1

>  <num_repl_uniq_ints>  (20) 
1

>  <num_uniq_ints_lost>  (20) 
0

>  <num_new_uniq_ints>  (20) 
6

>  <int_check>  (20) 
True

>  <ref_url>  (20) 
https://pubs.acs.org/doi/10.1021/acs.jcim.3c00276?fig=tgr1&ref=pdf

>  <submitter_name>  (20) 
Steph Wills

>  <submitter_institution>  (20) 
University of Oxford

>  <submitter_email>  (20) 
stephanie.wills@balliol.ox.ac.uk

>  <generation_date>  (20) 
2023-11-23

>  <method>  (20) 
FragNetv2

>  <original SMILES>  (20) 
CC(=O)Nc1nc(C(=O)NCCN(C)C(=O)c2cc[nH]n2)cs1

>  <original_name>  (20) 
x0556_0A-x0310_0A_48945-0_B2S

>  <ref_mols>  (20) 
x0556_0A,x0310_0A

>  <ref_pdb>  (20) 
x0310_0A

>  <rationale>  (20) 
FragNet: 2 rounds bioisosteric merging (no change in linker) incl [Xe]c1cc[nH]n1 replacing [Xe]c1cn[nH]c1 and CC(=O)N[Xe] replacing N#CCC(=O)N[Xe]

$$$$
x0556_0A-x0310_0A_21370_B1X
     RDKit          3D

 16 16  0  0  0  0  0  0  0  0999 V2000
    5.8020   10.2530   26.6720 C   0  0  0  0  0  0  0  0  0  0  0  0
    6.6580   11.3260   26.3210 O   0  0  0  0  0  0  0  0  0  0  0  0
    7.6060   10.9920   25.2840 C   0  0  0  0  0  0  0  0  0  0  0  0
    8.2370   12.1810   24.5640 C   0  0  0  0  0  0  0  0  0  0  0  0
    9.0630   11.5470   23.6940 C   0  0  0  0  0  0  0  0  0  0  0  0
    9.9080   12.2500   22.7750 N   0  0  0  0  0  0  0  0  0  0  0  0
   10.8030   13.2800   23.2310 C   0  0  0  0  0  0  0  0  0  0  0  0
   10.7990   13.7920   24.3340 O   0  0  0  0  0  0  0  0  0  0  0  0
   11.7350   13.6610   22.1600 C   0  0  0  0  0  0  0  0  0  0  0  0
   12.6920   14.6690   22.6580 C   0  0  1  0  0  0  0  0  0  0  0  0
   12.0600   16.0100   22.4650 C   0  0  0  0  0  0  0  0  0  0  0  0
   13.3000   14.1740   24.3360 S   0  0  0  0  0  0  0  0  0  0  0  0
   12.1610   14.9790   25.4880 C   0  0  0  0  0  0  0  0  0  0  0  0
    8.9520   10.2050   23.8500 N   0  0  0  0  0  0  0  0  0  0  0  0
    9.6900    9.2940   23.0790 C   0  0  0  0  0  0  0  0  0  0  0  0
    8.0610    9.8170   24.8180 N   0  0  0  0  0  0  0  0  0  0  0  0
  1  2  1  0
  2  3  1  0
  3  4  1  0
  4  5  2  0
  5  6  1  0
  6  7  1  0
  7  8  2  0
  7  9  1  0
  9 10  1  0
 10 11  1  1
 10 12  1  0
 12 13  1  0
  5 14  1  0
 14 15  1  0
 14 16  1  0
 16  3  2  0
A    1
 C1 
A    2
 O1 
A    3
 C2 
A    4
 C3 
A    5
 C4 
A    6
 N1 
A    7
 C5 
A    8
 O2 
A    9
 C6 
A   10
 C7 
A   11
 C8 
A   12
 S1 
A   13
 C9 
A   14
 N2 
A   15
 C10
A   16
 N3 
M  END
>  <similarity>  (21) 
1.0

>  <smiles>  (21) 
COc1cc(NC(=O)CC(C)SC)n(C)n1

>  <cmpd_id>  (21) 
ENAMINE:Z2852430883

>  <used_subnode>  (21) 
c1cn[nH]c1

>  <used_synthon>  (21) 
CSC(C)CC(=O)N[Xe]

>  <ref_subnode>  (21) 
c1cn[nH]c1

>  <ref_synthon>  (21) 
N#CCC(=O)N[Xe]

>  <fragmentA>  (21) 
x0556_0A

>  <fragmentB>  (21) 
x0310_0A

>  <HA>  (21) 
16

>  <HBD>  (21) 
1

>  <HBA>  (21) 
5

>  <MW>  (21) 
243.104147784

>  <TPSA>  (21) 
56.15

>  <LogP>  (21) 
1.5088

>  <RBs>  (21) 
5

>  <G_bound>  (21) 
-10.993893577046332

>  <G_unbound>  (21) 
-0.6937465842566533

>  <deltaG>  (21) 
-10.30014699278968

>  <comRMSD>  (21) 
0.44118440873194903

>  <UFFGibbs>  (21) 
255.85153226075167

>  <strain_per_HA>  (21) 
15.99072076629698

>  <substructure_overlap_check>  (21) 
True

>  <energy_ratio_check>  (21) 
True

>  <const_energy/unconst_energy>  (21) 
1.0919374745728296

>  <sucos>  (21) 
0.5025557140082352

>  <interactions>  (21) 
HBDonor_SER-125,Hydrophobic_GLU-88,Hydrophobic_TYR-90,Hydrophobic_HIS-21,Hydrophobic_PRO-107,Hydrophobic_TYR-89

>  <total_num_ints>  (21) 
6

>  <total_num_ints_nonhyd>  (21) 
1

>  <num_uniq_frag_ints>  (21) 
1

>  <num_repl_uniq_ints>  (21) 
1

>  <num_uniq_ints_lost>  (21) 
0

>  <num_new_uniq_ints>  (21) 
5

>  <int_check>  (21) 
True

>  <ref_url>  (21) 
https://pubs.acs.org/doi/10.1021/acs.jcim.3c00276?fig=tgr1&ref=pdf

>  <submitter_name>  (21) 
Steph Wills

>  <submitter_institution>  (21) 
University of Oxford

>  <submitter_email>  (21) 
stephanie.wills@balliol.ox.ac.uk

>  <generation_date>  (21) 
2023-11-23

>  <method>  (21) 
FragNetv2

>  <original SMILES>  (21) 
COc1cc(NC(=O)CC(C)SC)n(C)n1

>  <original_name>  (21) 
x0556_0A-x0310_0A_21370_B1X

>  <ref_mols>  (21) 
x0556_0A,x0310_0A

>  <ref_pdb>  (21) 
x0310_0A

>  <rationale>  (21) 
FragNet: 1 round bioisosteric merging incl c1cn[nH]c1 and CSC(C)CC(=O)N[Xe] replacing N#CCC(=O)N[Xe]

$$$$
x0556_0A-x0310_0A_11836_B1X
     RDKit          3D

 17 17  0  0  0  0  0  0  0  0999 V2000
    6.6770   14.3620   23.7370 C   0  0  0  0  0  0  0  0  0  0  0  0
    7.0300   13.4860   24.9410 C   0  0  0  0  0  0  0  0  0  0  0  0
    7.7410   12.1340   24.6310 C   0  0  0  0  0  0  0  0  0  0  0  0
    7.5250   10.8250   25.0750 C   0  0  0  0  0  0  0  0  0  0  0  0
    6.3320   10.8630   26.0530 C   0  0  0  0  0  0  0  0  0  0  0  0
    7.9500    9.8030   24.9290 N   0  0  0  0  0  0  0  0  0  0  0  0
    8.9320   10.2850   24.0260 N   0  0  0  0  0  0  0  0  0  0  0  0
    8.8990   11.7090   23.7670 C   0  0  0  0  0  0  0  0  0  0  0  0
    9.7310   12.4360   22.9430 N   0  0  0  0  0  0  0  0  0  0  0  0
   10.5700   13.3740   23.5030 C   0  0  0  0  0  0  0  0  0  0  0  0
   10.6390   13.6130   24.7000 O   0  0  0  0  0  0  0  0  0  0  0  0
   11.3610   14.0940   22.5450 C   0  0  0  0  0  0  0  0  0  0  0  0
   10.9030   13.9780   21.2660 F   0  0  0  0  0  0  0  0  0  0  0  0
   11.2610   15.4050   22.7520 F   0  0  0  0  0  0  0  0  0  0  0  0
   12.7140   13.9580   22.6280 C   0  0  0  0  0  0  0  0  0  0  0  0
   13.2240   15.3240   22.1590 C   0  0  0  0  0  0  0  0  0  0  0  0
   13.1690   13.6560   24.0570 C   0  0  0  0  0  0  0  0  0  0  0  0
  1  2  1  0
  2  3  1  0
  3  4  1  0
  4  5  1  0
  4  6  2  0
  6  7  1  0
  7  8  1  0
  8  9  1  0
  9 10  1  0
 10 11  2  0
 10 12  1  0
 12 13  1  0
 12 14  1  0
 12 15  1  0
 15 16  1  0
 15 17  1  0
  8  3  2  0
A    1
 C1 
A    2
 C2 
A    3
 C3 
A    4
 C4 
A    5
 C5 
A    6
 N1 
A    7
 N2 
A    8
 C6 
A    9
 N3 
A   10
 C7 
A   11
 O1 
A   12
 C8 
A   13
 F1 
A   14
 F2 
A   15
 C9 
A   16
 C10
A   17
 C11
M  END
>  <similarity>  (22) 
1.0

>  <smiles>  (22) 
CCc1c(C)n[nH]c1NC(=O)C(F)(F)C(C)C

>  <cmpd_id>  (22) 
ENAMINE:Z4285505219

>  <used_subnode>  (22) 
c1cn[nH]c1

>  <used_synthon>  (22) 
CC(C)C(F)(F)C(=O)N[Xe]

>  <ref_subnode>  (22) 
c1cn[nH]c1

>  <ref_synthon>  (22) 
N#CCC(=O)N[Xe]

>  <fragmentA>  (22) 
x0556_0A

>  <fragmentB>  (22) 
x0310_0A

>  <HA>  (22) 
17

>  <HBD>  (22) 
2

>  <HBA>  (22) 
2

>  <MW>  (22) 
245.133968604

>  <TPSA>  (22) 
57.78

>  <LogP>  (22) 
2.51032

>  <RBs>  (22) 
4

>  <G_bound>  (22) 
-7.215457525985152

>  <G_unbound>  (22) 
0.49601511899993933

>  <deltaG>  (22) 
-7.711472644985092

>  <comRMSD>  (22) 
0.7390126101223832

>  <UFFGibbs>  (22) 
570.7297869184071

>  <strain_per_HA>  (22) 
33.57234040696512

>  <substructure_overlap_check>  (22) 
True

>  <energy_ratio_check>  (22) 
True

>  <const_energy/unconst_energy>  (22) 
1.046174793684069

>  <sucos>  (22) 
0.5026090396162524

>  <interactions>  (22) 
HBDonor_SER-125,Hydrophobic_TYR-90,Hydrophobic_HIS-21,Hydrophobic_PRO-107,Hydrophobic_TYR-89

>  <total_num_ints>  (22) 
5

>  <total_num_ints_nonhyd>  (22) 
1

>  <num_uniq_frag_ints>  (22) 
1

>  <num_repl_uniq_ints>  (22) 
1

>  <num_uniq_ints_lost>  (22) 
0

>  <num_new_uniq_ints>  (22) 
4

>  <int_check>  (22) 
True

>  <ref_url>  (22) 
https://pubs.acs.org/doi/10.1021/acs.jcim.3c00276?fig=tgr1&ref=pdf

>  <submitter_name>  (22) 
Steph Wills

>  <submitter_institution>  (22) 
University of Oxford

>  <submitter_email>  (22) 
stephanie.wills@balliol.ox.ac.uk

>  <generation_date>  (22) 
2023-11-23

>  <method>  (22) 
FragNetv2

>  <original SMILES>  (22) 
CCc1c(C)n[nH]c1NC(=O)C(F)(F)C(C)C

>  <original_name>  (22) 
x0556_0A-x0310_0A_11836_B1X

>  <ref_mols>  (22) 
x0556_0A,x0310_0A

>  <ref_pdb>  (22) 
x0310_0A

>  <rationale>  (22) 
FragNet: 1 round bioisosteric merging incl c1cn[nH]c1 and CC(C)C(F)(F)C(=O)N[Xe] replacing N#CCC(=O)N[Xe]

$$$$
x0556_0A-x0310_0A_50623_B1X
     RDKit          3D

 19 19  0  0  0  0  0  0  0  0999 V2000
    5.6290   10.0480   26.8400 C   0  0  0  0  0  0  0  0  0  0  0  0
    6.5350   11.1250   26.7210 O   0  0  0  0  0  0  0  0  0  0  0  0
    7.3330   11.1380   25.6300 C   0  0  0  0  0  0  0  0  0  0  0  0
    7.6300   12.3860   24.8660 C   0  0  0  0  0  0  0  0  0  0  0  0
    8.5100   11.7670   23.8980 C   0  0  0  0  0  0  0  0  0  0  0  0
    9.0420   12.5790   22.9640 N   0  0  0  0  0  0  0  0  0  0  0  0
   10.3260   13.1280   23.2130 C   0  0  0  0  0  0  0  0  0  0  0  0
   11.1310   12.9240   24.3700 O   0  0  0  0  0  0  0  0  0  0  0  0
   10.7920   14.0270   22.0980 C   0  0  0  0  0  0  0  0  0  0  0  0
   12.1540   14.1010   22.3100 C   0  0  0  0  0  0  0  0  0  0  0  0
   12.4130   15.0730   23.4480 C   0  0  0  0  0  0  0  0  0  0  0  0
   12.0830   16.1340   22.4580 C   0  0  0  0  0  0  0  0  0  0  0  0
   11.5700   14.9830   24.7290 C   0  0  0  0  0  0  0  0  0  0  0  0
   13.6560   14.9940   23.7410 N   0  0  0  0  0  4  0  0  0  0  0  0
   13.9990   14.2600   24.6860 O   0  0  0  0  0  0  0  0  0  0  0  0
   14.3590   15.3870   22.8430 O   0  0  0  0  0  1  0  0  0  0  0  0
    8.7000   10.4770   24.0310 N   0  0  0  0  0  0  0  0  0  0  0  0
    9.4690    9.6220   23.2850 C   0  0  0  0  0  0  0  0  0  0  0  0
    7.9700   10.0090   25.1120 N   0  0  0  0  0  0  0  0  0  0  0  0
  1  2  1  0
  2  3  1  0
  3  4  1  0
  4  5  2  0
  5  6  1  0
  6  7  1  0
  7  8  2  0
  7  9  1  0
  9 10  1  0
 10 11  1  0
 11 12  1  0
 11 13  1  0
 11 14  1  0
 14 15  2  0
 14 16  1  0
  5 17  1  0
 17 18  1  0
 17 19  1  0
 19  3  2  0
M  CHG  2  14   1  16  -1
A    1
 C1 
A    2
 O1 
A    3
 C2 
A    4
 C3 
A    5
 C4 
A    6
 N1 
A    7
 C5 
A    8
 O2 
A    9
 C6 
A   10
 C7 
A   11
 C8 
A   12
 C9 
A   13
 C10
A   14
 N2 
A   15
 O3 
A   16
 O4 
A   17
 N3 
A   18
 C11
A   19
 N4 
M  END
>  <similarity>  (23) 
1.0

>  <smiles>  (23) 
COc1cc(NC(=O)CCC(C)(C)[N+](=O)[O-])n(C)n1

>  <cmpd_id>  (23) 
ENAMINE:Z2852440801

>  <used_subnode>  (23) 
c1cn[nH]c1

>  <used_synthon>  (23) 
CC(C)(CCC(=O)N[Xe])[N+](=O)[O-]

>  <ref_subnode>  (23) 
c1cn[nH]c1

>  <ref_synthon>  (23) 
N#CCC(=O)N[Xe]

>  <fragmentA>  (23) 
x0556_0A

>  <fragmentB>  (23) 
x0310_0A

>  <HA>  (23) 
19

>  <HBD>  (23) 
1

>  <HBA>  (23) 
6

>  <MW>  (23) 
270.132805056

>  <TPSA>  (23) 
99.29

>  <LogP>  (23) 
1.2026999999999999

>  <RBs>  (23) 
6

>  <G_bound>  (23) 
-3.978332969788598

>  <G_unbound>  (23) 
0.4510795483044209

>  <deltaG>  (23) 
-4.429412518093018

>  <comRMSD>  (23) 
0.8299962964178162

>  <UFFGibbs>  (23) 
1789.839871766211

>  <strain_per_HA>  (23) 
94.2020985140111

>  <substructure_overlap_check>  (23) 
True

>  <energy_ratio_check>  (23) 
True

>  <const_energy/unconst_energy>  (23) 
1.1290184775905487

>  <sucos>  (23) 
0.503412611418429

>  <interactions>  (23) 
Hydrophobic_GLU-88,Hydrophobic_TYR-90,Hydrophobic_HIS-21,Anionic_HIS-21,CationPi_HIS-21,Hydrophobic_PRO-107,Hydrophobic_TYR-89

>  <total_num_ints>  (23) 
7

>  <total_num_ints_nonhyd>  (23) 
2

>  <num_uniq_frag_ints>  (23) 
1

>  <num_repl_uniq_ints>  (23) 
1

>  <num_uniq_ints_lost>  (23) 
0

>  <num_new_uniq_ints>  (23) 
6

>  <int_check>  (23) 
True

>  <ref_url>  (23) 
https://pubs.acs.org/doi/10.1021/acs.jcim.3c00276?fig=tgr1&ref=pdf

>  <submitter_name>  (23) 
Steph Wills

>  <submitter_institution>  (23) 
University of Oxford

>  <submitter_email>  (23) 
stephanie.wills@balliol.ox.ac.uk

>  <generation_date>  (23) 
2023-11-23

>  <method>  (23) 
FragNetv2

>  <original SMILES>  (23) 
COc1cc(NC(=O)CCC(C)(C)[N+](=O)[O-])n(C)n1

>  <original_name>  (23) 
x0556_0A-x0310_0A_50623_B1X

>  <ref_mols>  (23) 
x0556_0A,x0310_0A

>  <ref_pdb>  (23) 
x0310_0A

>  <rationale>  (23) 
FragNet: 1 round bioisosteric merging incl c1cn[nH]c1 and CC(C)(CCC(=O)N[Xe])[N+](=O)[O-] replacing N#CCC(=O)N[Xe]

$$$$
x0556_0A-x0310_0A_26534_B1X
     RDKit          3D

 20 20  0  0  0  0  0  0  0  0999 V2000
    5.6330    9.3670   28.7790 C   0  0  0  0  0  0  0  0  0  0  0  0
    4.9080   10.2750   27.8010 C   0  0  0  0  0  0  0  0  0  0  0  0
    5.5470   10.2670   26.5140 O   0  0  0  0  0  0  0  0  0  0  0  0
    6.4340   11.2770   26.3110 C   0  0  0  0  0  0  0  0  0  0  0  0
    6.4110   12.3410   26.9250 O   0  0  0  0  0  0  0  0  0  0  0  0
    7.5220   10.9990   25.2340 C   0  0  0  0  0  0  0  0  0  0  0  0
    8.1400   12.2040   24.5850 C   0  0  0  0  0  0  0  0  0  0  0  0
    9.1080   11.5540   23.6510 C   0  0  0  0  0  0  0  0  0  0  0  0
    9.9070   12.3280   22.8530 N   0  0  0  0  0  0  0  0  0  0  0  0
   10.6240   13.3470   23.3800 C   0  0  0  0  0  0  0  0  0  0  0  0
   10.4350   13.7900   24.4990 O   0  0  0  0  0  0  0  0  0  0  0  0
   11.6880   13.8830   22.4170 C   0  0  0  0  0  0  0  0  0  0  0  0
   12.4670   14.8900   23.1500 C   0  0  0  0  0  0  0  0  0  0  0  0
   11.9670   16.1280   22.9420 F   0  0  0  0  0  0  0  0  0  0  0  0
   13.6990   14.9350   22.5900 F   0  0  0  0  0  0  0  0  0  0  0  0
   12.5770   14.5380   24.6520 C   0  0  0  0  0  0  0  0  0  0  0  0
   13.8860   13.7590   24.7340 C   0  0  0  0  0  0  0  0  0  0  0  0
    9.0040   10.2160   23.7890 N   0  0  0  0  0  0  0  0  0  0  0  0
    9.7740    9.2440   23.0460 C   0  0  0  0  0  0  0  0  0  0  0  0
    8.0620    9.8430   24.7340 N   0  0  0  0  0  0  0  0  0  0  0  0
  1  2  1  0
  2  3  1  0
  3  4  1  0
  4  5  2  0
  4  6  1  0
  6  7  1  0
  7  8  2  0
  8  9  1  0
  9 10  1  0
 10 11  2  0
 10 12  1  0
 12 13  1  0
 13 14  1  0
 13 15  1  0
 13 16  1  0
 16 17  1  0
  8 18  1  0
 18 19  1  0
 18 20  1  0
 20  6  2  0
A    1
 C1 
A    2
 C2 
A    3
 O1 
A    4
 C3 
A    5
 O2 
A    6
 C4 
A    7
 C5 
A    8
 C6 
A    9
 N1 
A   10
 C7 
A   11
 O3 
A   12
 C8 
A   13
 C9 
A   14
 F1 
A   15
 F2 
A   16
 C10
A   17
 C11
A   18
 N2 
A   19
 C12
A   20
 N3 
M  END
>  <similarity>  (24) 
1.0

>  <smiles>  (24) 
CCOC(=O)c1cc(NC(=O)CC(F)(F)CC)n(C)n1

>  <cmpd_id>  (24) 
ENAMINE:Z3609365769

>  <used_subnode>  (24) 
c1cn[nH]c1

>  <used_synthon>  (24) 
CCC(F)(F)CC(=O)N[Xe]

>  <ref_subnode>  (24) 
c1cn[nH]c1

>  <ref_synthon>  (24) 
N#CCC(=O)N[Xe]

>  <fragmentA>  (24) 
x0556_0A

>  <fragmentB>  (24) 
x0310_0A

>  <HA>  (24) 
20

>  <HBD>  (24) 
1

>  <HBA>  (24) 
5

>  <MW>  (24) 
289.1237978440001

>  <TPSA>  (24) 
73.22

>  <LogP>  (24) 
1.9707

>  <RBs>  (24) 
6

>  <G_bound>  (24) 
-7.34096365195268

>  <G_unbound>  (24) 
0.7905645360407572

>  <deltaG>  (24) 
-8.131528187993437

>  <comRMSD>  (24) 
0.3846712014919067

>  <UFFGibbs>  (24) 
835.5310615286239

>  <strain_per_HA>  (24) 
41.7765530764312

>  <substructure_overlap_check>  (24) 
True

>  <energy_ratio_check>  (24) 
True

>  <const_energy/unconst_energy>  (24) 
0.9364398636084866

>  <sucos>  (24) 
0.5036247890493649

>  <interactions>  (24) 
HBDonor_SER-125,Hydrophobic_HIS-21,Hydrophobic_PRO-107,Hydrophobic_GLU-106,Hydrophobic_TYR-89

>  <total_num_ints>  (24) 
5

>  <total_num_ints_nonhyd>  (24) 
1

>  <num_uniq_frag_ints>  (24) 
1

>  <num_repl_uniq_ints>  (24) 
1

>  <num_uniq_ints_lost>  (24) 
0

>  <num_new_uniq_ints>  (24) 
4

>  <int_check>  (24) 
True

>  <ref_url>  (24) 
https://pubs.acs.org/doi/10.1021/acs.jcim.3c00276?fig=tgr1&ref=pdf

>  <submitter_name>  (24) 
Steph Wills

>  <submitter_institution>  (24) 
University of Oxford

>  <submitter_email>  (24) 
stephanie.wills@balliol.ox.ac.uk

>  <generation_date>  (24) 
2023-11-23

>  <method>  (24) 
FragNetv2

>  <original SMILES>  (24) 
CCOC(=O)c1cc(NC(=O)CC(F)(F)CC)n(C)n1

>  <original_name>  (24) 
x0556_0A-x0310_0A_26534_B1X

>  <ref_mols>  (24) 
x0556_0A,x0310_0A

>  <ref_pdb>  (24) 
x0310_0A

>  <rationale>  (24) 
FragNet: 1 round bioisosteric merging incl c1cn[nH]c1 and CCC(F)(F)CC(=O)N[Xe] replacing N#CCC(=O)N[Xe]

$$$$
x0556_0A-x0310_0A_11772_B1X
     RDKit          3D

 16 16  0  0  0  0  0  0  0  0999 V2000
    6.3630   11.0850   26.1390 C   0  0  0  0  0  0  0  0  0  0  0  0
    7.4850   11.0230   25.1780 C   0  0  0  0  0  0  0  0  0  0  0  0
    8.2430   12.1090   24.4380 C   0  0  0  0  0  0  0  0  0  0  0  0
    9.2290   11.3120   23.6580 C   0  0  0  0  0  0  0  0  0  0  0  0
   10.1160   12.0160   22.8480 N   0  0  0  0  0  0  0  0  0  0  0  0
   10.8900   13.0640   23.2680 C   0  0  0  0  0  0  0  0  0  0  0  0
   11.1100   13.2470   24.4540 O   0  0  0  0  0  0  0  0  0  0  0  0
   11.4490   14.0040   22.3590 C   0  0  0  0  0  0  0  0  0  0  0  0
   12.5970   13.5340   21.4810 C   0  0  0  0  0  0  0  0  0  0  0  0
   10.3910   14.6310   21.4400 C   0  0  0  0  0  0  0  0  0  0  0  0
   12.1390   15.0700   23.2340 C   0  0  0  0  0  0  0  0  0  0  0  0
   13.4350   14.7740   23.4030 F   0  0  0  0  0  0  0  0  0  0  0  0
   12.0450   16.2840   22.6640 F   0  0  0  0  0  0  0  0  0  0  0  0
   11.6010   15.1480   24.4770 F   0  0  0  0  0  0  0  0  0  0  0  0
    9.1180    9.9730   23.8600 N   0  0  0  0  0  0  0  0  0  0  0  0
    8.0910    9.8340   24.7520 N   0  0  0  0  0  0  0  0  0  0  0  0
  1  2  1  0
  2  3  1  0
  3  4  2  0
  4  5  1  0
  5  6  1  0
  6  7  2  0
  6  8  1  0
  8  9  1  0
  8 10  1  0
  8 11  1  0
 11 12  1  0
 11 13  1  0
 11 14  1  0
  4 15  1  0
 15 16  1  0
 16  2  2  0
A    1
 C1 
A    2
 C2 
A    3
 C3 
A    4
 C4 
A    5
 N1 
A    6
 C5 
A    7
 O1 
A    8
 C6 
A    9
 C7 
A   10
 C8 
A   11
 C9 
A   12
 F1 
A   13
 F2 
A   14
 F3 
A   15
 N2 
A   16
 N3 
M  END
>  <similarity>  (25) 
1.0

>  <smiles>  (25) 
Cc1cc(NC(=O)C(C)(C)C(F)(F)F)[nH]n1

>  <cmpd_id>  (25) 
ENAMINE:Z3186242713

>  <used_subnode>  (25) 
c1cn[nH]c1

>  <used_synthon>  (25) 
CC(C)(C(=O)N[Xe])C(F)(F)F

>  <ref_subnode>  (25) 
c1cn[nH]c1

>  <ref_synthon>  (25) 
N#CCC(=O)N[Xe]

>  <fragmentA>  (25) 
x0556_0A

>  <fragmentB>  (25) 
x0310_0A

>  <HA>  (25) 
16

>  <HBD>  (25) 
2

>  <HBA>  (25) 
2

>  <MW>  (25) 
235.093246664

>  <TPSA>  (25) 
57.78

>  <LogP>  (25) 
2.2451199999999996

>  <RBs>  (25) 
2

>  <G_bound>  (25) 
-6.0121346778677

>  <G_unbound>  (25) 
0.6943878693525504

>  <deltaG>  (25) 
-6.706522547220251

>  <comRMSD>  (25) 
0.4205331010374694

>  <UFFGibbs>  (25) 
171.12064204267784

>  <strain_per_HA>  (25) 
10.695040127667365

>  <substructure_overlap_check>  (25) 
True

>  <energy_ratio_check>  (25) 
True

>  <const_energy/unconst_energy>  (25) 
0.9987180856844813

>  <sucos>  (25) 
0.5040136703818593

>  <interactions>  (25) 
HBDonor_SER-125,Hydrophobic_TYR-90,Hydrophobic_HIS-21,Hydrophobic_PRO-107

>  <total_num_ints>  (25) 
4

>  <total_num_ints_nonhyd>  (25) 
1

>  <num_uniq_frag_ints>  (25) 
1

>  <num_repl_uniq_ints>  (25) 
1

>  <num_uniq_ints_lost>  (25) 
0

>  <num_new_uniq_ints>  (25) 
3

>  <int_check>  (25) 
True

>  <ref_url>  (25) 
https://pubs.acs.org/doi/10.1021/acs.jcim.3c00276?fig=tgr1&ref=pdf

>  <submitter_name>  (25) 
Steph Wills

>  <submitter_institution>  (25) 
University of Oxford

>  <submitter_email>  (25) 
stephanie.wills@balliol.ox.ac.uk

>  <generation_date>  (25) 
2023-11-23

>  <method>  (25) 
FragNetv2

>  <original SMILES>  (25) 
Cc1cc(NC(=O)C(C)(C)C(F)(F)F)[nH]n1

>  <original_name>  (25) 
x0556_0A-x0310_0A_11772_B1X

>  <ref_mols>  (25) 
x0556_0A,x0310_0A

>  <ref_pdb>  (25) 
x0310_0A

>  <rationale>  (25) 
FragNet: 1 round bioisosteric merging incl c1cn[nH]c1 and CC(C)(C(=O)N[Xe])C(F)(F)F replacing N#CCC(=O)N[Xe]

$$$$
x0556_0A-x0310_0A_9393_B1X
     RDKit          3D

 20 20  0  0  0  0  0  0  0  0999 V2000
   10.3000    9.4230   22.8260 C   0  0  0  0  0  0  0  0  0  0  0  0
    8.9910    9.2180   23.5230 C   0  0  0  0  0  0  0  0  0  0  0  0
    8.5220   10.4170   24.1430 N   0  0  0  0  0  0  0  0  0  0  0  0
    7.5670   10.2980   25.0980 N   0  0  0  0  0  0  0  0  0  0  0  0
    7.3270   11.5580   25.4830 C   0  0  0  0  0  0  0  0  0  0  0  0
    6.2650   11.7830   26.5850 C   0  0  0  0  0  0  0  0  0  0  0  0
    5.5930   10.4770   27.0050 C   0  0  0  0  0  0  0  0  0  0  0  0
    6.8260   12.5010   27.8160 C   0  0  0  0  0  0  0  0  0  0  0  0
    5.1240   12.7010   26.0840 C   0  0  0  0  0  0  0  0  0  0  0  0
    8.1330   12.4560   24.7660 C   0  0  0  0  0  0  0  0  0  0  0  0
    8.8930   11.7200   23.9230 C   0  0  0  0  0  0  0  0  0  0  0  0
    9.8250   12.4790   23.0910 N   0  0  0  0  0  0  0  0  0  0  0  0
   10.7550   13.2710   23.7140 C   0  0  0  0  0  0  0  0  0  0  0  0
   10.5350   13.8370   24.7780 O   0  0  0  0  0  0  0  0  0  0  0  0
   12.1000   13.4560   23.0690 C   0  0  0  0  0  0  0  0  0  0  0  0
   12.4770   14.8450   23.0820 C   0  0  0  0  0  0  0  0  0  0  0  0
   12.3250   15.5850   21.8310 C   0  0  0  0  0  0  0  0  0  0  0  0
   11.3020   14.8170   20.9710 C   0  0  0  0  0  0  0  0  0  0  0  0
   11.8880   16.8410   22.0600 F   0  0  0  0  0  0  0  0  0  0  0  0
   13.5010   15.6640   21.1830 F   0  0  0  0  0  0  0  0  0  0  0  0
  1  2  1  0
  2  3  1  0
  3  4  1  0
  4  5  2  0
  5  6  1  0
  6  7  1  0
  6  8  1  0
  6  9  1  0
  5 10  1  0
 10 11  2  0
 11 12  1  0
 12 13  1  0
 13 14  2  0
 13 15  1  0
 15 16  1  0
 16 17  1  0
 17 18  1  0
 17 19  1  0
 17 20  1  0
 11  3  1  0
A    1
 C1 
A    2
 C2 
A    3
 N1 
A    4
 N2 
A    5
 C3 
A    6
 C4 
A    7
 C5 
A    8
 C6 
A    9
 C7 
A   10
 C8 
A   11
 C9 
A   12
 N3 
A   13
 C10
A   14
 O1 
A   15
 C11
A   16
 C12
A   17
 C13
A   18
 C14
A   19
 F1 
A   20
 F2 
M  END
>  <similarity>  (26) 
1.0

>  <smiles>  (26) 
CCn1nc(C(C)(C)C)cc1NC(=O)CCC(C)(F)F

>  <cmpd_id>  (26) 
ENAMINE:Z3608266646

>  <used_subnode>  (26) 
c1cn[nH]c1

>  <used_synthon>  (26) 
CC(F)(F)CCC(=O)N[Xe]

>  <ref_subnode>  (26) 
c1cn[nH]c1

>  <ref_synthon>  (26) 
N#CCC(=O)N[Xe]

>  <fragmentA>  (26) 
x0556_0A

>  <fragmentB>  (26) 
x0310_0A

>  <HA>  (26) 
20

>  <HBD>  (26) 
1

>  <HBA>  (26) 
3

>  <MW>  (26) 
287.180918796

>  <TPSA>  (26) 
46.92

>  <LogP>  (26) 
3.5744000000000025

>  <RBs>  (26) 
5

>  <G_bound>  (26) 
-9.945089074442462

>  <G_unbound>  (26) 
1.502759237628114

>  <deltaG>  (26) 
-11.447848312070576

>  <comRMSD>  (26) 
0.6904975775767559

>  <UFFGibbs>  (26) 
190.96034040328644

>  <strain_per_HA>  (26) 
9.548017020164322

>  <substructure_overlap_check>  (26) 
True

>  <energy_ratio_check>  (26) 
True

>  <const_energy/unconst_energy>  (26) 
1.026958891807941

>  <sucos>  (26) 
0.5047047750151837

>  <interactions>  (26) 
HBDonor_SER-125,Hydrophobic_TYR-90,Hydrophobic_HIS-21,Hydrophobic_PRO-107,Hydrophobic_VAL-124,Hydrophobic_TYR-89

>  <total_num_ints>  (26) 
6

>  <total_num_ints_nonhyd>  (26) 
1

>  <num_uniq_frag_ints>  (26) 
1

>  <num_repl_uniq_ints>  (26) 
1

>  <num_uniq_ints_lost>  (26) 
0

>  <num_new_uniq_ints>  (26) 
5

>  <int_check>  (26) 
True

>  <ref_url>  (26) 
https://pubs.acs.org/doi/10.1021/acs.jcim.3c00276?fig=tgr1&ref=pdf

>  <submitter_name>  (26) 
Steph Wills

>  <submitter_institution>  (26) 
University of Oxford

>  <submitter_email>  (26) 
stephanie.wills@balliol.ox.ac.uk

>  <generation_date>  (26) 
2023-11-23

>  <method>  (26) 
FragNetv2

>  <original SMILES>  (26) 
CCn1nc(C(C)(C)C)cc1NC(=O)CCC(C)(F)F

>  <original_name>  (26) 
x0556_0A-x0310_0A_9393_B1X

>  <ref_mols>  (26) 
x0556_0A,x0310_0A

>  <ref_pdb>  (26) 
x0310_0A

>  <rationale>  (26) 
FragNet: 1 round bioisosteric merging incl c1cn[nH]c1 and CC(F)(F)CCC(=O)N[Xe] replacing N#CCC(=O)N[Xe]

$$$$
x0556_0A-x0310_0A_45072_B1X
     RDKit          3D

 17 18  0  0  0  0  0  0  0  0999 V2000
   12.1590   15.9360   22.2180 C   0  0  0  0  0  0  0  0  0  0  0  0
   12.5590   15.0040   23.0620 C   0  0  0  0  0  0  0  0  0  0  0  0
   12.2980   13.5240   22.8710 C   0  0  0  0  0  0  0  0  0  0  0  0
   10.9690   13.1030   23.4970 C   0  0  0  0  0  0  0  0  0  0  0  0
   10.6530   13.6080   24.5650 O   0  0  0  0  0  0  0  0  0  0  0  0
   10.0990   12.1960   22.9700 N   0  0  0  0  0  0  0  0  0  0  0  0
    9.0540   11.6030   23.7910 C   0  0  0  0  0  0  0  0  0  0  0  0
    9.0650   10.2580   24.1380 N   0  0  0  0  0  0  0  0  0  0  0  0
    8.0150    9.8620   24.9240 N   0  0  0  0  0  0  0  0  0  0  0  0
    7.3000   10.9640   25.0940 C   0  0  0  0  0  0  0  0  0  0  0  0
    7.7910   12.0950   24.4670 C   0  0  0  0  0  0  0  0  0  0  0  0
    7.0100   13.4040   24.5990 C   0  0  0  0  0  0  0  0  0  0  0  0
    6.5270   14.0900   25.7090 C   0  0  0  0  0  0  0  0  0  0  0  0
    5.7720   15.3650   25.3870 C   0  0  0  0  0  0  0  0  0  0  0  0
    5.6410   15.7190   23.9110 C   0  0  0  0  0  0  0  0  0  0  0  0
    6.1820   14.9390   22.8960 N   0  0  0  0  0  0  0  0  0  0  0  0
    6.8590   13.8000   23.2470 C   0  0  0  0  0  0  0  0  0  0  0  0
  1  2  1  0
  2  3  1  0
  3  4  1  0
  4  5  2  0
  4  6  1  0
  6  7  1  0
  7  8  1  0
  8  9  1  0
  9 10  2  0
 10 11  1  0
 11 12  1  0
 12 13  2  0
 13 14  1  0
 14 15  2  0
 15 16  1  0
 16 17  2  0
 11  7  2  0
 17 12  1  0
A    1
 C1 
A    2
 C2 
A    3
 C3 
A    4
 C4 
A    5
 O1 
A    6
 N1 
A    7
 C5 
A    8
 N2 
A    9
 N3 
A   10
 C6 
A   11
 C7 
A   12
 C8 
A   13
 C9 
A   14
 C10
A   15
 C11
A   16
 N4 
A   17
 C12
M  END
>  <similarity>  (27) 
1.0

>  <smiles>  (27) 
CCCC(=O)Nc1[nH]ncc1-c1cccnc1

>  <cmpd_id>  (27) 
ENAMINE:Z4201198309

>  <used_subnode>  (27) 
c1cn[nH]c1

>  <used_synthon>  (27) 
CCCC(=O)N[Xe]

>  <ref_subnode>  (27) 
c1cn[nH]c1

>  <ref_synthon>  (27) 
N#CCC(=O)N[Xe]

>  <fragmentA>  (27) 
x0556_0A

>  <fragmentB>  (27) 
x0310_0A

>  <HA>  (27) 
17

>  <HBD>  (27) 
2

>  <HBA>  (27) 
3

>  <MW>  (27) 
230.116761068

>  <TPSA>  (27) 
70.67

>  <LogP>  (27) 
2.2103

>  <RBs>  (27) 
4

>  <G_bound>  (27) 
-6.990551573099878

>  <G_unbound>  (27) 
0.592035407158741

>  <deltaG>  (27) 
-7.582586980258618

>  <comRMSD>  (27) 
0.4207339250006782

>  <UFFGibbs>  (27) 
114.55214697905748

>  <strain_per_HA>  (27) 
6.738361587003381

>  <substructure_overlap_check>  (27) 
True

>  <energy_ratio_check>  (27) 
True

>  <const_energy/unconst_energy>  (27) 
1.036392117833566

>  <sucos>  (27) 
0.5049333613807714

>  <interactions>  (27) 
HBDonor_SER-125,Hydrophobic_TYR-90,Hydrophobic_HIS-21,Hydrophobic_GLU-85,Hydrophobic_PRO-107,Hydrophobic_TYR-89

>  <total_num_ints>  (27) 
6

>  <total_num_ints_nonhyd>  (27) 
1

>  <num_uniq_frag_ints>  (27) 
1

>  <num_repl_uniq_ints>  (27) 
1

>  <num_uniq_ints_lost>  (27) 
0

>  <num_new_uniq_ints>  (27) 
5

>  <int_check>  (27) 
True

>  <ref_url>  (27) 
https://pubs.acs.org/doi/10.1021/acs.jcim.3c00276?fig=tgr1&ref=pdf

>  <submitter_name>  (27) 
Steph Wills

>  <submitter_institution>  (27) 
University of Oxford

>  <submitter_email>  (27) 
stephanie.wills@balliol.ox.ac.uk

>  <generation_date>  (27) 
2023-11-23

>  <method>  (27) 
FragNetv2

>  <original SMILES>  (27) 
CCCC(=O)Nc1[nH]ncc1-c1cccnc1

>  <original_name>  (27) 
x0556_0A-x0310_0A_45072_B1X

>  <ref_mols>  (27) 
x0556_0A,x0310_0A

>  <ref_pdb>  (27) 
x0310_0A

>  <rationale>  (27) 
FragNet: 1 round bioisosteric merging incl c1cn[nH]c1 and CCCC(=O)N[Xe] replacing N#CCC(=O)N[Xe]

$$$$
x0556_0A-x0310_0A_26633-0_B2S_rgrp-1
     RDKit          3D

 13 13  0  0  0  0  0  0  0  0999 V2000
   11.9930   16.3410   22.0130 C   0  0  0  0  0  0  0  0  0  0  0  0
   12.8650   15.1420   22.0330 C   0  0  0  0  0  0  0  0  0  0  0  0
   12.8310   14.4910   23.2520 C   0  0  0  0  0  0  0  0  0  0  0  0
   12.1550   13.2930   23.2860 C   0  0  0  0  0  0  0  0  0  0  0  0
   10.8510   13.2780   23.7490 C   0  0  0  0  0  0  0  0  0  0  0  0
   10.4600   14.0260   24.6410 O   0  0  0  0  0  0  0  0  0  0  0  0
   10.0890   12.3190   23.0990 N   0  0  0  0  0  0  0  0  0  0  0  0
    9.1680   11.6010   23.8280 C   0  0  0  0  0  0  0  0  0  0  0  0
    8.0270   12.0190   24.6990 C   0  0  0  0  0  0  0  0  0  0  0  0
    7.4900   10.8090   25.1630 C   0  0  0  0  0  0  0  0  0  0  0  0
    6.3270   10.6130   26.0790 C   0  0  0  0  0  0  0  0  0  0  0  0
    8.1590    9.7470   24.6780 N   0  0  0  0  0  0  0  0  0  0  0  0
    9.1410   10.2380   23.8960 N   0  0  0  0  0  0  0  0  0  0  0  0
  1  2  1  0
  2  3  1  0
  3  4  1  0
  4  5  1  0
  5  6  2  0
  5  7  1  0
  7  8  1  0
  8  9  2  0
  9 10  1  0
 10 11  1  0
 10 12  2  0
 12 13  1  0
 13  8  1  0
A    1
 C1 
A    2
 C2 
A    3
 C3 
A    4
 C4 
A    5
 C5 
A    6
 O1 
A    7
 N1 
A    8
 C6 
A    9
 C7 
A   10
 C8 
A   11
 C9 
A   12
 N2 
A   13
 N3 
M  END
>  <similarity>  (28) 
1.0

>  <smiles>  (28) 
CCCCC(=O)Nc1cc(C)n[nH]1

>  <cmpd_id>  (28) 
ENAMINE:Z666224326,CHEMSPACE-BB:CSMB00011386146

>  <used_subnode>  (28) 
[Xe]c1cn[nH]c1

>  <used_synthon>  (28) 
CCCCC(=O)N[Xe]

>  <ref_subnode>  (28) 
[Xe]c1cn[nH]c1

>  <ref_synthon>  (28) 
N#CCC(=O)N[Xe]

>  <fragmentA>  (28) 
x0556_0A

>  <fragmentB>  (28) 
x0310_0A

>  <rev_synthon>  (28) 
[Xe]c1ccn[nH]1

>  <intermed_node1>  (28) 
CCCCC(N)=O

>  <HA>  (28) 
13

>  <HBD>  (28) 
2

>  <HBA>  (28) 
2

>  <MW>  (28) 
181.1215121

>  <TPSA>  (28) 
57.78

>  <LogP>  (28) 
1.8468199999999997

>  <RBs>  (28) 
4

>  <G_bound>  (28) 
-8.007136889247606

>  <G_unbound>  (28) 
0.2274840845423915

>  <deltaG>  (28) 
-8.234620973789998

>  <comRMSD>  (28) 
0.18216452294113028

>  <substructure_overlap_check>  (28) 
True

>  <energy_ratio_check>  (28) 
True

>  <const_energy/unconst_energy>  (28) 
2.849233947963083

>  <sucos>  (28) 
0.5051996742793358

>  <interactions>  (28) 
Hydrophobic_PRO-107,HBDonor_SER-125,Hydrophobic_TYR-90,Hydrophobic_TYR-89,Hydrophobic_HIS-21

>  <total_num_ints>  (28) 
5

>  <total_num_ints_nonhyd>  (28) 
1

>  <num_uniq_frag_ints>  (28) 
1

>  <num_repl_uniq_ints>  (28) 
1

>  <num_uniq_ints_lost>  (28) 
0

>  <num_new_uniq_ints>  (28) 
4

>  <int_check>  (28) 
True

>  <ref_url>  (28) 
https://pubs.acs.org/doi/10.1021/acs.jcim.3c00276?fig=tgr1&ref=pdf

>  <submitter_name>  (28) 
Steph Wills

>  <submitter_institution>  (28) 
University of Oxford

>  <submitter_email>  (28) 
stephanie.wills@balliol.ox.ac.uk

>  <generation_date>  (28) 
2023-11-23

>  <method>  (28) 
FragNetv2

>  <original SMILES>  (28) 
CCCCC(=O)Nc1cc(C)n[nH]1

>  <original_name>  (28) 
x0556_0A-x0310_0A_26633-0_B2S_rgrp-1

>  <ref_mols>  (28) 
x0556_0A,x0310_0A

>  <ref_pdb>  (28) 
x0310_0A

>  <rationale>  (28) 
FragNet: 2 rounds bioisosteric merging (no change in linker) incl [Xe]c1ccn[nH]1 replacing [Xe]c1cn[nH]c1 and CCCCC(=O)N[Xe] replacing N#CCC(=O)N[Xe]

$$$$
x0556_0A-x0310_0A_26515_B1X
     RDKit          3D

 21 21  0  0  0  0  0  0  0  0999 V2000
    4.6050    9.2500   27.6380 C   0  0  0  0  0  0  0  0  0  0  0  0
    5.7490   10.2360   27.3620 C   0  0  0  0  0  0  0  0  0  0  0  0
    5.2900   11.3990   26.6860 O   0  0  0  0  0  0  0  0  0  0  0  0
    6.3210   12.1430   26.1710 C   0  0  0  0  0  0  0  0  0  0  0  0
    6.4100   13.3440   26.4040 O   0  0  0  0  0  0  0  0  0  0  0  0
    7.3830   11.4300   25.2910 C   0  0  0  0  0  0  0  0  0  0  0  0
    8.3870   12.2460   24.5150 C   0  0  0  0  0  0  0  0  0  0  0  0
    9.2300   11.2580   23.8040 C   0  0  0  0  0  0  0  0  0  0  0  0
   10.2850   11.6880   22.9840 N   0  0  0  0  0  0  0  0  0  0  0  0
   10.9790   12.9810   23.2350 C   0  0  0  0  0  0  0  0  0  0  0  0
   10.8260   13.6040   24.2680 O   0  0  0  0  0  0  0  0  0  0  0  0
   11.8870   13.4840   22.0400 C   0  0  0  0  0  0  0  0  0  0  0  0
   12.8570   14.4350   22.7620 C   0  0  1  0  0  0  0  0  0  0  0  0
   11.9050   15.5010   23.0850 C   0  0  0  0  0  0  0  0  0  0  0  0
   12.0680   16.5240   21.9970 C   0  0  0  0  0  0  0  0  0  0  0  0
   13.3010   14.2800   24.2560 C   0  0  0  0  0  0  0  0  0  0  0  0
   12.3220   14.7620   25.2310 C   0  0  0  0  0  0  0  0  0  0  0  0
   13.6330   12.8260   24.5200 C   0  0  0  0  0  0  0  0  0  0  0  0
   14.6490   14.9520   24.5950 C   0  0  0  0  0  0  0  0  0  0  0  0
    8.7830    9.9810   24.1090 N   0  0  0  0  0  0  0  0  0  0  0  0
    7.6840   10.0380   24.9990 N   0  0  0  0  0  0  0  0  0  0  0  0
  1  2  1  0
  2  3  1  0
  3  4  1  0
  4  5  2  0
  4  6  1  0
  6  7  1  0
  7  8  2  0
  8  9  1  0
  9 10  1  0
 10 11  2  0
 10 12  1  0
 13 12  1  1
 13 14  1  0
 14 15  1  0
 13 16  1  0
 16 17  1  0
 16 18  1  0
 16 19  1  0
  8 20  1  0
 20 21  1  0
 21  6  2  0
A    1
 C1 
A    2
 C2 
A    3
 O1 
A    4
 C3 
A    5
 O2 
A    6
 C4 
A    7
 C5 
A    8
 C6 
A    9
 N1 
A   10
 C7 
A   11
 O3 
A   12
 C8 
A   13
 C9 
A   14
 C10
A   15
 C11
A   16
 C12
A   17
 C13
A   18
 C14
A   19
 C15
A   20
 N2 
A   21
 N3 
M  END
>  <similarity>  (29) 
1.0

>  <smiles>  (29) 
CCOC(=O)c1cc(NC(=O)CC(CC)C(C)(C)C)[nH]n1

>  <cmpd_id>  (29) 
ENAMINE:PV-002102374373

>  <used_subnode>  (29) 
c1cn[nH]c1

>  <used_synthon>  (29) 
CCC(CC(=O)N[Xe])C(C)(C)C

>  <ref_subnode>  (29) 
c1cn[nH]c1

>  <ref_synthon>  (29) 
N#CCC(=O)N[Xe]

>  <fragmentA>  (29) 
x0556_0A

>  <fragmentB>  (29) 
x0310_0A

>  <HA>  (29) 
21

>  <HBD>  (29) 
2

>  <HBA>  (29) 
4

>  <MW>  (29) 
295.18959166

>  <TPSA>  (29) 
84.08

>  <LogP>  (29) 
2.987300000000001

>  <RBs>  (29) 
6

>  <G_bound>  (29) 
-7.265369304967027

>  <G_unbound>  (29) 
0.3975399135234648

>  <deltaG>  (29) 
-7.662909218490492

>  <comRMSD>  (29) 
0.5642803475846

>  <UFFGibbs>  (29) 
19276.53020676131

>  <strain_per_HA>  (29) 
917.9300098457766

>  <substructure_overlap_check>  (29) 
True

>  <energy_ratio_check>  (29) 
True

>  <const_energy/unconst_energy>  (29) 
0.9698928824124317

>  <sucos>  (29) 
0.5055781667938962

>  <interactions>  (29) 
Hydrophobic_GLU-88,Hydrophobic_TYR-90,Hydrophobic_HIS-21,HBDonor_SER-105,Hydrophobic_PRO-107,Hydrophobic_CYS-110,Hydrophobic_TYR-89

>  <total_num_ints>  (29) 
7

>  <total_num_ints_nonhyd>  (29) 
1

>  <num_uniq_frag_ints>  (29) 
1

>  <num_repl_uniq_ints>  (29) 
1

>  <num_uniq_ints_lost>  (29) 
0

>  <num_new_uniq_ints>  (29) 
6

>  <int_check>  (29) 
True

>  <ref_url>  (29) 
https://pubs.acs.org/doi/10.1021/acs.jcim.3c00276?fig=tgr1&ref=pdf

>  <submitter_name>  (29) 
Steph Wills

>  <submitter_institution>  (29) 
University of Oxford

>  <submitter_email>  (29) 
stephanie.wills@balliol.ox.ac.uk

>  <generation_date>  (29) 
2023-11-23

>  <method>  (29) 
FragNetv2

>  <original SMILES>  (29) 
CCOC(=O)c1cc(NC(=O)CC(CC)C(C)(C)C)[nH]n1

>  <original_name>  (29) 
x0556_0A-x0310_0A_26515_B1X

>  <ref_mols>  (29) 
x0556_0A,x0310_0A

>  <ref_pdb>  (29) 
x0310_0A

>  <rationale>  (29) 
FragNet: 1 round bioisosteric merging incl c1cn[nH]c1 and CCC(CC(=O)N[Xe])C(C)(C)C replacing N#CCC(=O)N[Xe]

$$$$
x0556_0A-x0310_0A_36360_B1X
     RDKit          3D

 16 16  0  0  0  0  0  0  0  0999 V2000
   10.6170    8.7390   23.2160 C   0  0  0  0  0  0  0  0  0  0  0  0
    9.5150    9.3140   22.8730 C   0  0  0  0  0  0  0  0  0  0  0  0
    8.9430   10.3130   23.7550 N   0  0  0  0  0  0  0  0  0  0  0  0
    7.9950    9.8940   24.6870 N   0  0  0  0  0  0  0  0  0  0  0  0
    7.6530   11.0220   25.2920 C   0  0  0  0  0  0  0  0  0  0  0  0
    8.4250   12.1760   24.7210 C   0  0  0  0  0  0  0  0  0  0  0  0
    9.2380   11.6780   23.7540 C   0  0  0  0  0  0  0  0  0  0  0  0
   10.1110   12.3750   22.9860 N   0  0  0  0  0  0  0  0  0  0  0  0
   10.8890   13.3820   23.4310 C   0  0  0  0  0  0  0  0  0  0  0  0
   11.0070   13.7440   24.5980 O   0  0  0  0  0  0  0  0  0  0  0  0
   11.5640   14.0170   22.3990 C   0  0  0  0  0  0  0  0  0  0  0  0
   12.2880   13.1450   21.6810 F   0  0  0  0  0  0  0  0  0  0  0  0
   10.6610   14.5510   21.5170 F   0  0  0  0  0  0  0  0  0  0  0  0
   12.4860   15.0160   22.7350 C   0  0  0  0  0  0  0  0  0  0  0  0
   11.9340   16.0780   23.3070 F   0  0  0  0  0  0  0  0  0  0  0  0
   13.0500   15.5090   21.6010 F   0  0  0  0  0  0  0  0  0  0  0  0
  1  2  1  0
  2  3  1  0
  3  4  1  0
  4  5  2  0
  5  6  1  0
  6  7  2  0
  7  8  1  0
  8  9  1  0
  9 10  2  0
  9 11  1  0
 11 12  1  0
 11 13  1  0
 11 14  1  0
 14 15  1  0
 14 16  1  0
  7  3  1  0
A    1
 C1 
A    2
 C2 
A    3
 N1 
A    4
 N2 
A    5
 C3 
A    6
 C4 
A    7
 C5 
A    8
 N3 
A    9
 C6 
A   10
 O1 
A   11
 C7 
A   12
 F1 
A   13
 F2 
A   14
 C8 
A   15
 F3 
A   16
 F4 
M  END
>  <similarity>  (30) 
1.0

>  <smiles>  (30) 
CCn1nccc1NC(=O)C(F)(F)C(F)F

>  <cmpd_id>  (30) 
ENAMINE:Z1343974295

>  <used_subnode>  (30) 
c1cn[nH]c1

>  <used_synthon>  (30) 
O=C(N[Xe])C(F)(F)C(F)F

>  <ref_subnode>  (30) 
c1cn[nH]c1

>  <ref_synthon>  (30) 
N#CCC(=O)N[Xe]

>  <fragmentA>  (30) 
x0556_0A

>  <fragmentB>  (30) 
x0310_0A

>  <HA>  (30) 
16

>  <HBD>  (30) 
1

>  <HBA>  (30) 
3

>  <MW>  (30) 
239.068174788

>  <TPSA>  (30) 
46.92

>  <LogP>  (30) 
1.7418999999999998

>  <RBs>  (30) 
4

>  <G_bound>  (30) 
-3.1927992272017724

>  <G_unbound>  (30) 
0.5228977215118416

>  <deltaG>  (30) 
-3.715696948713614

>  <comRMSD>  (30) 
0.4550517347176715

>  <UFFGibbs>  (30) 
100.17191787342676

>  <strain_per_HA>  (30) 
6.260744867089173

>  <substructure_overlap_check>  (30) 
True

>  <energy_ratio_check>  (30) 
True

>  <const_energy/unconst_energy>  (30) 
1.026033323025756

>  <sucos>  (30) 
0.505839299933888

>  <interactions>  (30) 
HBDonor_SER-125,Hydrophobic_PRO-107,Hydrophobic_CYS-110,Hydrophobic_VAL-124,Hydrophobic_ASP-109

>  <total_num_ints>  (30) 
5

>  <total_num_ints_nonhyd>  (30) 
1

>  <num_uniq_frag_ints>  (30) 
1

>  <num_repl_uniq_ints>  (30) 
1

>  <num_uniq_ints_lost>  (30) 
0

>  <num_new_uniq_ints>  (30) 
4

>  <int_check>  (30) 
True

>  <ref_url>  (30) 
https://pubs.acs.org/doi/10.1021/acs.jcim.3c00276?fig=tgr1&ref=pdf

>  <submitter_name>  (30) 
Steph Wills

>  <submitter_institution>  (30) 
University of Oxford

>  <submitter_email>  (30) 
stephanie.wills@balliol.ox.ac.uk

>  <generation_date>  (30) 
2023-11-23

>  <method>  (30) 
FragNetv2

>  <original SMILES>  (30) 
CCn1nccc1NC(=O)C(F)(F)C(F)F

>  <original_name>  (30) 
x0556_0A-x0310_0A_36360_B1X

>  <ref_mols>  (30) 
x0556_0A,x0310_0A

>  <ref_pdb>  (30) 
x0310_0A

>  <rationale>  (30) 
FragNet: 1 round bioisosteric merging incl c1cn[nH]c1 and O=C(N[Xe])C(F)(F)C(F)F replacing N#CCC(=O)N[Xe]

$$$$
x0556_0A-x0310_0A_20718_B1X
     RDKit          3D

 19 19  0  0  0  0  0  0  0  0999 V2000
   12.1500   15.8720   22.3800 C   0  0  0  0  0  0  0  0  0  0  0  0
   12.3710   14.4390   22.6710 C   0  0  2  0  0  0  0  0  0  0  0  0
   11.4900   13.5110   22.3480 C   0  0  0  0  0  0  0  0  0  0  0  0
   10.5250   12.8820   23.3340 C   0  0  0  0  0  0  0  0  0  0  0  0
   10.3920   13.4520   24.4160 O   0  0  0  0  0  0  0  0  0  0  0  0
    9.7920   11.7490   23.1450 N   0  0  0  0  0  0  0  0  0  0  0  0
    8.7820   11.4810   24.0180 C   0  0  0  0  0  0  0  0  0  0  0  0
    8.3980   10.0680   24.4590 C   0  0  0  0  0  0  0  0  0  0  0  0
    7.4080   10.0070   25.3100 N   0  0  0  0  0  0  0  0  0  0  0  0
    7.1200   11.3320   25.4530 N   0  0  0  0  0  0  0  0  0  0  0  0
    6.0880   11.6460   26.3210 C   0  0  0  0  0  0  0  0  0  0  0  0
    6.0130   10.6790   27.5260 C   0  0  0  0  0  0  0  0  0  0  0  0
    4.5460   10.3190   27.7290 C   0  0  0  0  0  0  0  0  0  0  0  0
    3.6190   11.0920   27.9650 O   0  0  0  0  0  0  0  0  0  0  0  0
    4.3200    8.9880   27.6330 O   0  0  0  0  0  0  0  0  0  0  0  0
    7.9290   12.2700   24.6800 C   0  0  0  0  0  0  0  0  0  0  0  0
   12.6150   14.1860   24.1560 C   0  0  0  0  0  0  0  0  0  0  0  0
   13.9190   14.3040   24.4830 F   0  0  0  0  0  0  0  0  0  0  0  0
   11.9110   15.0550   24.9210 F   0  0  0  0  0  0  0  0  0  0  0  0
  2  1  1  1
  2  3  1  0
  3  4  1  0
  4  5  2  0
  4  6  1  0
  6  7  1  0
  7  8  1  0
  8  9  2  0
  9 10  1  0
 10 11  1  0
 11 12  1  0
 12 13  1  0
 13 14  2  0
 13 15  1  0
 10 16  1  0
  2 17  1  0
 17 18  1  0
 17 19  1  0
 16  7  2  0
A    1
 C1 
A    2
 C2 
A    3
 C3 
A    4
 C4 
A    5
 O1 
A    6
 N1 
A    7
 C5 
A    8
 C6 
A    9
 N2 
A   10
 N3 
A   11
 C7 
A   12
 C8 
A   13
 C9 
A   14
 O2 
A   15
 O3 
A   16
 C10
A   17
 C11
A   18
 F1 
A   19
 F2 
M  END
>  <similarity>  (31) 
1.0

>  <smiles>  (31) 
CC(CC(=O)Nc1cnn(CCC(=O)O)c1)C(F)F

>  <cmpd_id>  (31) 
ENAMINE:Z3839816110

>  <used_subnode>  (31) 
c1cn[nH]c1

>  <used_synthon>  (31) 
CC(CC(=O)N[Xe])C(F)F

>  <ref_subnode>  (31) 
c1cn[nH]c1

>  <ref_synthon>  (31) 
N#CCC(=O)N[Xe]

>  <fragmentA>  (31) 
x0556_0A

>  <fragmentB>  (31) 
x0310_0A

>  <HA>  (31) 
19

>  <HBD>  (31) 
2

>  <HBA>  (31) 
4

>  <MW>  (31) 
275.10814778

>  <TPSA>  (31) 
84.22

>  <LogP>  (31) 
1.5875999999999997

>  <RBs>  (31) 
7

>  <G_bound>  (31) 
-4.46557458331067

>  <G_unbound>  (31) 
1.4196084193681124

>  <deltaG>  (31) 
-5.885183002678783

>  <comRMSD>  (31) 
1.1757296877865586

>  <UFFGibbs>  (31) 
214.56008721364867

>  <strain_per_HA>  (31) 
11.292636169139405

>  <substructure_overlap_check>  (31) 
True

>  <energy_ratio_check>  (31) 
True

>  <const_energy/unconst_energy>  (31) 
1.01455049026019

>  <sucos>  (31) 
0.5066065054995527

>  <interactions>  (31) 
Hydrophobic_TYR-90,Hydrophobic_HIS-21,HBDonor_SER-105,Hydrophobic_PRO-107,Hydrophobic_TYR-89

>  <total_num_ints>  (31) 
5

>  <total_num_ints_nonhyd>  (31) 
1

>  <num_uniq_frag_ints>  (31) 
1

>  <num_repl_uniq_ints>  (31) 
1

>  <num_uniq_ints_lost>  (31) 
0

>  <num_new_uniq_ints>  (31) 
4

>  <int_check>  (31) 
True

>  <ref_url>  (31) 
https://pubs.acs.org/doi/10.1021/acs.jcim.3c00276?fig=tgr1&ref=pdf

>  <submitter_name>  (31) 
Steph Wills

>  <submitter_institution>  (31) 
University of Oxford

>  <submitter_email>  (31) 
stephanie.wills@balliol.ox.ac.uk

>  <generation_date>  (31) 
2023-11-23

>  <method>  (31) 
FragNetv2

>  <original SMILES>  (31) 
CC(CC(=O)Nc1cnn(CCC(=O)O)c1)C(F)F

>  <original_name>  (31) 
x0556_0A-x0310_0A_20718_B1X

>  <ref_mols>  (31) 
x0556_0A,x0310_0A

>  <ref_pdb>  (31) 
x0310_0A

>  <rationale>  (31) 
FragNet: 1 round bioisosteric merging incl c1cn[nH]c1 and CC(CC(=O)N[Xe])C(F)F replacing N#CCC(=O)N[Xe]

$$$$
x0556_0A-x0310_0A_20073_B1X
     RDKit          3D

 20 20  0  0  0  0  0  0  0  0999 V2000
   10.2830    9.3600   22.9840 C   0  0  0  0  0  0  0  0  0  0  0  0
    8.9640    9.1260   23.6570 C   0  0  0  0  0  0  0  0  0  0  0  0
    8.4040   10.2870   24.2610 N   0  0  0  0  0  0  0  0  0  0  0  0
    7.4420   10.1850   25.2140 N   0  0  0  0  0  0  0  0  0  0  0  0
    7.0960   11.4450   25.5980 C   0  0  0  0  0  0  0  0  0  0  0  0
    6.1260   11.6710   26.5630 C   0  0  0  0  0  0  0  0  0  0  0  0
    6.7120   12.2190   27.7330 C   0  0  0  0  0  0  0  0  0  0  0  0
    5.0650   12.6750   26.1090 C   0  0  0  0  0  0  0  0  0  0  0  0
    5.4830   10.3800   27.0500 C   0  0  0  0  0  0  0  0  0  0  0  0
    7.8640   12.3590   24.8690 C   0  0  0  0  0  0  0  0  0  0  0  0
    8.7310   11.5450   23.9860 C   0  0  0  0  0  0  0  0  0  0  0  0
    9.6670   12.1370   23.0970 N   0  0  0  0  0  0  0  0  0  0  0  0
   10.4530   13.2120   23.5430 C   0  0  0  0  0  0  0  0  0  0  0  0
   10.4890   13.6370   24.6860 O   0  0  0  0  0  0  0  0  0  0  0  0
   11.2570   13.8220   22.4430 C   0  0  0  0  0  0  0  0  0  0  0  0
   11.9730   14.8720   23.1010 C   0  0  2  0  0  0  0  0  0  0  0  0
   12.0990   16.0690   22.2100 C   0  0  0  0  0  0  0  0  0  0  0  0
   13.2860   14.3420   23.5650 C   0  0  0  0  0  0  0  0  0  0  0  0
   13.3750   14.3110   24.9280 F   0  0  0  0  0  0  0  0  0  0  0  0
   14.1590   15.2230   23.1210 F   0  0  0  0  0  0  0  0  0  0  0  0
  1  2  1  0
  2  3  1  0
  3  4  1  0
  4  5  2  0
  5  6  1  0
  6  7  1  0
  6  8  1  0
  6  9  1  0
  5 10  1  0
 10 11  2  0
 11 12  1  0
 12 13  1  0
 13 14  2  0
 13 15  1  0
 15 16  1  0
 16 17  1  6
 16 18  1  0
 18 19  1  0
 18 20  1  0
 11  3  1  0
A    1
 C1 
A    2
 C2 
A    3
 N1 
A    4
 N2 
A    5
 C3 
A    6
 C4 
A    7
 C5 
A    8
 C6 
A    9
 C7 
A   10
 C8 
A   11
 C9 
A   12
 N3 
A   13
 C10
A   14
 O1 
A   15
 C11
A   16
 C12
A   17
 C13
A   18
 C14
A   19
 F1 
A   20
 F2 
M  END
>  <similarity>  (32) 
1.0

>  <smiles>  (32) 
CCn1nc(C(C)(C)C)cc1NC(=O)CC(C)C(F)F

>  <cmpd_id>  (32) 
ENAMINE:Z3608271981

>  <used_subnode>  (32) 
c1cn[nH]c1

>  <used_synthon>  (32) 
CC(CC(=O)N[Xe])C(F)F

>  <ref_subnode>  (32) 
c1cn[nH]c1

>  <ref_synthon>  (32) 
N#CCC(=O)N[Xe]

>  <fragmentA>  (32) 
x0556_0A

>  <fragmentB>  (32) 
x0310_0A

>  <HA>  (32) 
20

>  <HBD>  (32) 
1

>  <HBA>  (32) 
3

>  <MW>  (32) 
287.180918796

>  <TPSA>  (32) 
46.92

>  <LogP>  (32) 
3.4303000000000017

>  <RBs>  (32) 
5

>  <G_bound>  (32) 
-7.545384113334349

>  <G_unbound>  (32) 
0.5137175460440864

>  <deltaG>  (32) 
-8.059101659378436

>  <comRMSD>  (32) 
0.5716465466122483

>  <UFFGibbs>  (32) 
539.9117958843788

>  <strain_per_HA>  (32) 
26.995589794218937

>  <substructure_overlap_check>  (32) 
True

>  <energy_ratio_check>  (32) 
True

>  <const_energy/unconst_energy>  (32) 
1.0115375860302132

>  <sucos>  (32) 
0.5069219338048713

>  <interactions>  (32) 
HBDonor_SER-125,Hydrophobic_TYR-90,Hydrophobic_PRO-107,Hydrophobic_VAL-124,Hydrophobic_TYR-89

>  <total_num_ints>  (32) 
5

>  <total_num_ints_nonhyd>  (32) 
1

>  <num_uniq_frag_ints>  (32) 
1

>  <num_repl_uniq_ints>  (32) 
1

>  <num_uniq_ints_lost>  (32) 
0

>  <num_new_uniq_ints>  (32) 
4

>  <int_check>  (32) 
True

>  <ref_url>  (32) 
https://pubs.acs.org/doi/10.1021/acs.jcim.3c00276?fig=tgr1&ref=pdf

>  <submitter_name>  (32) 
Steph Wills

>  <submitter_institution>  (32) 
University of Oxford

>  <submitter_email>  (32) 
stephanie.wills@balliol.ox.ac.uk

>  <generation_date>  (32) 
2023-11-23

>  <method>  (32) 
FragNetv2

>  <original SMILES>  (32) 
CCn1nc(C(C)(C)C)cc1NC(=O)CC(C)C(F)F

>  <original_name>  (32) 
x0556_0A-x0310_0A_20073_B1X

>  <ref_mols>  (32) 
x0556_0A,x0310_0A

>  <ref_pdb>  (32) 
x0310_0A

>  <rationale>  (32) 
FragNet: 1 round bioisosteric merging incl c1cn[nH]c1 and CC(CC(=O)N[Xe])C(F)F replacing N#CCC(=O)N[Xe]

$$$$
x0556_0A-x0310_0A_12708_B1X
     RDKit          3D

 18 18  0  0  0  0  0  0  0  0999 V2000
    5.5540   12.9230   26.2560 C   0  0  0  0  0  0  0  0  0  0  0  0
    6.3300   11.9870   26.9930 O   0  0  0  0  0  0  0  0  0  0  0  0
    6.4310   10.7480   26.2900 C   0  0  0  0  0  0  0  0  0  0  0  0
    7.4610   10.8120   25.2660 N   0  0  0  0  0  0  0  0  0  0  0  0
    7.9190   11.9300   24.6610 C   0  0  0  0  0  0  0  0  0  0  0  0
    8.9860   11.4910   23.6650 C   0  0  0  0  0  0  0  0  0  0  0  0
    9.6450   12.3480   22.8900 N   0  0  0  0  0  0  0  0  0  0  0  0
   10.6320   13.0960   23.3150 C   0  0  0  0  0  0  0  0  0  0  0  0
   10.7800   13.3790   24.4980 O   0  0  0  0  0  0  0  0  0  0  0  0
   11.5470   13.6290   22.2430 C   0  0  1  0  0  0  0  0  0  0  0  0
   10.4040   14.4170   20.9660 S   0  0  0  0  0  0  0  0  0  0  0  0
   11.3540   14.5090   19.4100 C   0  0  0  0  0  0  0  0  0  0  0  0
   12.5510   14.6120   22.8010 C   0  0  0  0  0  0  0  0  0  0  0  0
   11.9280   15.8200   23.2500 C   0  0  0  0  0  0  0  0  0  0  0  0
   13.3610   13.9910   23.9440 C   0  0  0  0  0  0  0  0  0  0  0  0
   13.3920   15.1330   21.6590 C   0  0  0  0  0  0  0  0  0  0  0  0
    8.9830   10.1290   23.8570 C   0  0  0  0  0  0  0  0  0  0  0  0
    8.0860    9.6990   24.7990 N   0  0  0  0  0  0  0  0  0  0  0  0
  1  2  1  0
  2  3  1  0
  3  4  1  0
  4  5  1  0
  5  6  2  0
  6  7  1  0
  7  8  1  0
  8  9  2  0
  8 10  1  0
 10 11  1  6
 11 12  1  0
 10 13  1  0
 13 14  1  0
 13 15  1  0
 13 16  1  0
  6 17  1  0
 17 18  2  0
 18  4  1  0
A    1
 C1 
A    2
 O1 
A    3
 C2 
A    4
 N1 
A    5
 C3 
A    6
 C4 
A    7
 N2 
A    8
 C5 
A    9
 O2 
A   10
 C6 
A   11
 S1 
A   12
 C7 
A   13
 C8 
A   14
 C9 
A   15
 C10
A   16
 C11
A   17
 C12
A   18
 N3 
M  END
>  <similarity>  (33) 
1.0

>  <smiles>  (33) 
COCn1cc(NC(=O)C(SC)C(C)(C)C)cn1

>  <cmpd_id>  (33) 
ENAMINE:Z2911862079

>  <used_subnode>  (33) 
c1cn[nH]c1

>  <used_synthon>  (33) 
CSC(C(=O)N[Xe])C(C)(C)C

>  <ref_subnode>  (33) 
c1cn[nH]c1

>  <ref_synthon>  (33) 
N#CCC(=O)N[Xe]

>  <fragmentA>  (33) 
x0556_0A

>  <fragmentB>  (33) 
x0310_0A

>  <HA>  (33) 
18

>  <HBD>  (33) 
1

>  <HBA>  (33) 
5

>  <MW>  (33) 
271.135447912

>  <TPSA>  (33) 
56.15

>  <LogP>  (33) 
2.2032

>  <RBs>  (33) 
5

>  <G_bound>  (33) 
-10.312360589266282

>  <G_unbound>  (33) 
-0.22256149217158766

>  <deltaG>  (33) 
-10.089799097094694

>  <comRMSD>  (33) 
0.9804554668341587

>  <UFFGibbs>  (33) 
166.30878842291523

>  <strain_per_HA>  (33) 
9.239377134606402

>  <substructure_overlap_check>  (33) 
True

>  <energy_ratio_check>  (33) 
True

>  <const_energy/unconst_energy>  (33) 
0.8481442090567498

>  <sucos>  (33) 
0.5071462744014265

>  <interactions>  (33) 
HBDonor_SER-125,Hydrophobic_TYR-90,Hydrophobic_HIS-21,Hydrophobic_PRO-107,Hydrophobic_ASP-39,Hydrophobic_TYR-89,Hydrophobic_THR-126

>  <total_num_ints>  (33) 
7

>  <total_num_ints_nonhyd>  (33) 
1

>  <num_uniq_frag_ints>  (33) 
1

>  <num_repl_uniq_ints>  (33) 
1

>  <num_uniq_ints_lost>  (33) 
0

>  <num_new_uniq_ints>  (33) 
6

>  <int_check>  (33) 
True

>  <ref_url>  (33) 
https://pubs.acs.org/doi/10.1021/acs.jcim.3c00276?fig=tgr1&ref=pdf

>  <submitter_name>  (33) 
Steph Wills

>  <submitter_institution>  (33) 
University of Oxford

>  <submitter_email>  (33) 
stephanie.wills@balliol.ox.ac.uk

>  <generation_date>  (33) 
2023-11-23

>  <method>  (33) 
FragNetv2

>  <original SMILES>  (33) 
COCn1cc(NC(=O)C(SC)C(C)(C)C)cn1

>  <original_name>  (33) 
x0556_0A-x0310_0A_12708_B1X

>  <ref_mols>  (33) 
x0556_0A,x0310_0A

>  <ref_pdb>  (33) 
x0310_0A

>  <rationale>  (33) 
FragNet: 1 round bioisosteric merging incl c1cn[nH]c1 and CSC(C(=O)N[Xe])C(C)(C)C replacing N#CCC(=O)N[Xe]

$$$$
x0556_0A-x0310_0A_30298_B1X
     RDKit          3D

 21 21  0  0  0  0  0  0  0  0999 V2000
   11.9120   13.7180   22.6590 C   0  0  0  0  0  0  0  0  0  0  0  0
   10.8140   13.3630   23.6550 C   0  0  0  0  0  0  0  0  0  0  0  0
   10.8680   13.7500   24.8150 O   0  0  0  0  0  0  0  0  0  0  0  0
    9.7160   12.5500   23.1290 N   0  0  0  0  0  0  0  0  0  0  0  0
    8.8740   11.8080   23.9180 C   0  0  0  0  0  0  0  0  0  0  0  0
    8.9110   10.4490   24.0710 N   0  0  0  0  0  0  0  0  0  0  0  0
    7.9730    9.9760   24.9110 N   0  0  0  0  0  0  0  0  0  0  0  0
    7.2920   11.0640   25.3300 C   0  0  0  0  0  0  0  0  0  0  0  0
    6.1260   10.9920   26.3130 C   0  0  0  0  0  0  0  0  0  0  0  0
    5.2440   12.0150   26.2770 O   0  0  0  0  0  0  0  0  0  0  0  0
    5.9570    9.9430   27.2120 N   0  0  0  0  0  0  0  0  0  0  0  0
    5.5030   10.0140   28.4790 C   0  0  0  0  0  0  0  0  0  0  0  0
    6.1740   10.9880   29.4520 C   0  0  0  0  0  0  0  0  0  0  0  0
    5.7460   12.1200   29.6540 O   0  0  0  0  0  0  0  0  0  0  0  0
    7.2710   10.4190   30.0310 O   0  0  0  0  0  0  0  0  0  0  0  0
    7.7750   10.9060   31.3030 C   0  0  0  0  0  0  0  0  0  0  0  0
    6.6450   11.1540   32.2840 C   0  0  0  0  0  0  0  0  0  0  0  0
    8.5580   12.0320   31.1410 C   0  0  0  0  0  0  0  0  0  0  0  0
    8.6460    9.7670   31.8530 C   0  0  0  0  0  0  0  0  0  0  0  0
    7.8370   12.2180   24.7190 C   0  0  0  0  0  0  0  0  0  0  0  0
    7.2620   13.9830   24.9520 Br  0  0  0  0  0  0  0  0  0  0  0  0
  1  2  1  0
  2  3  2  0
  2  4  1  0
  4  5  1  0
  5  6  1  0
  6  7  1  0
  7  8  2  0
  8  9  1  0
  9 10  2  0
  9 11  1  0
 11 12  1  0
 12 13  1  0
 13 14  2  0
 13 15  1  0
 15 16  1  0
 16 17  1  0
 16 18  1  0
 16 19  1  0
  8 20  1  0
 20 21  1  0
 20  5  2  0
A    1
 C1 
A    2
 C2 
A    3
 O1 
A    4
 N1 
A    5
 C3 
A    6
 N2 
A    7
 N3 
A    8
 C4 
A    9
 C5 
A   10
 O2 
A   11
 N4 
A   12
 C6 
A   13
 C7 
A   14
 O3 
A   15
 O4 
A   16
 C8 
A   17
 C9 
A   18
 C10
A   19
 C11
A   20
 C12
A   21
BR1 
M  END
>  <similarity>  (34) 
1.0

>  <smiles>  (34) 
CC(=O)Nc1[nH]nc(C(=O)NCC(=O)OC(C)(C)C)c1Br

>  <cmpd_id>  (34) 
ENAMINE:PV-004086888973

>  <used_subnode>  (34) 
c1cn[nH]c1

>  <used_synthon>  (34) 
CC(=O)N[Xe]

>  <ref_subnode>  (34) 
c1cn[nH]c1

>  <ref_synthon>  (34) 
N#CCC(=O)N[Xe]

>  <fragmentA>  (34) 
x0556_0A

>  <fragmentB>  (34) 
x0310_0A

>  <HA>  (34) 
21

>  <HBD>  (34) 
3

>  <HBA>  (34) 
5

>  <MW>  (34) 
360.04331712400005

>  <TPSA>  (34) 
113.17999999999999

>  <LogP>  (34) 
1.2020999999999995

>  <RBs>  (34) 
4

>  <G_bound>  (34) 
-6.417151637381872

>  <G_unbound>  (34) 
1.1780226351238066

>  <deltaG>  (34) 
-7.595174272505679

>  <comRMSD>  (34) 
0.40763470133248736

>  <UFFGibbs>  (34) 
82.28712741571917

>  <strain_per_HA>  (34) 
3.91843463884377

>  <substructure_overlap_check>  (34) 
True

>  <energy_ratio_check>  (34) 
True

>  <const_energy/unconst_energy>  (34) 
1.0094589091655946

>  <sucos>  (34) 
0.5076612446314227

>  <interactions>  (34) 
Hydrophobic_HIS-21,HBDonor_SER-105,Hydrophobic_PRO-107,Hydrophobic_GLU-106

>  <total_num_ints>  (34) 
4

>  <total_num_ints_nonhyd>  (34) 
1

>  <num_uniq_frag_ints>  (34) 
1

>  <num_repl_uniq_ints>  (34) 
1

>  <num_uniq_ints_lost>  (34) 
0

>  <num_new_uniq_ints>  (34) 
3

>  <int_check>  (34) 
True

>  <ref_url>  (34) 
https://pubs.acs.org/doi/10.1021/acs.jcim.3c00276?fig=tgr1&ref=pdf

>  <submitter_name>  (34) 
Steph Wills

>  <submitter_institution>  (34) 
University of Oxford

>  <submitter_email>  (34) 
stephanie.wills@balliol.ox.ac.uk

>  <generation_date>  (34) 
2023-11-23

>  <method>  (34) 
FragNetv2

>  <original SMILES>  (34) 
CC(=O)Nc1[nH]nc(C(=O)NCC(=O)OC(C)(C)C)c1Br

>  <original_name>  (34) 
x0556_0A-x0310_0A_30298_B1X

>  <ref_mols>  (34) 
x0556_0A,x0310_0A

>  <ref_pdb>  (34) 
x0310_0A

>  <rationale>  (34) 
FragNet: 1 round bioisosteric merging incl c1cn[nH]c1 and CC(=O)N[Xe] replacing N#CCC(=O)N[Xe]

$$$$
x0556_0A-x0310_0A_87-0_B2S_rgrp-0
     RDKit          3D

 14 14  0  0  0  0  0  0  0  0999 V2000
   13.8200   13.5250   24.7260 C   0  0  0  0  0  0  0  0  0  0  0  0
   13.2580   14.1420   23.4980 C   0  0  0  0  0  0  0  0  0  0  0  0
   11.8480   14.0800   22.9500 C   0  0  0  0  0  0  0  0  0  0  0  0
   11.4790   14.7950   21.7080 C   0  0  0  0  0  0  0  0  0  0  0  0
   12.0630   16.1810   21.8480 C   0  0  0  0  0  0  0  0  0  0  0  0
   10.8330   13.3090   23.7240 C   0  0  0  0  0  0  0  0  0  0  0  0
   10.5900   13.6480   24.8710 O   0  0  0  0  0  0  0  0  0  0  0  0
   10.2250   12.2580   23.0790 N   0  0  0  0  0  0  0  0  0  0  0  0
    9.2810   11.5500   23.7820 C   0  0  0  0  0  0  0  0  0  0  0  0
    8.1400   12.0000   24.6570 C   0  0  0  0  0  0  0  0  0  0  0  0
    7.5720   10.7960   25.0910 C   0  0  0  0  0  0  0  0  0  0  0  0
    6.3820   10.5730   26.0110 C   0  0  0  0  0  0  0  0  0  0  0  0
    8.2050    9.7180   24.5980 N   0  0  0  0  0  0  0  0  0  0  0  0
    9.2090   10.1880   23.8290 N   0  0  0  0  0  0  0  0  0  0  0  0
  1  2  1  0
  2  3  2  3
  3  4  1  0
  4  5  1  0
  3  6  1  0
  6  7  2  0
  6  8  1  0
  8  9  1  0
  9 10  2  0
 10 11  1  0
 11 12  1  0
 11 13  2  0
 13 14  1  0
 14  9  1  0
A    1
 C1 
A    2
 C2 
A    3
 C3 
A    4
 C4 
A    5
 C5 
A    6
 C6 
A    7
 O1 
A    8
 N1 
A    9
 C7 
A   10
 C8 
A   11
 C9 
A   12
 C10
A   13
 N2 
A   14
 N3 
M  END
>  <similarity>  (35) 
1.0

>  <smiles>  (35) 
CC=C(CC)C(=O)Nc1cc(C)n[nH]1

>  <cmpd_id>  (35) 
ENAMINE:Z2028553140

>  <used_subnode>  (35) 
[Xe]c1cn[nH]c1

>  <used_synthon>  (35) 
CC=C(CC)C(=O)N[Xe]

>  <ref_subnode>  (35) 
[Xe]c1cn[nH]c1

>  <ref_synthon>  (35) 
N#CCC(=O)N[Xe]

>  <fragmentA>  (35) 
x0556_0A

>  <fragmentB>  (35) 
x0310_0A

>  <rev_synthon>  (35) 
[Xe]c1ccn[nH]1

>  <intermed_node1>  (35) 
CC=C(CC)C(N)=O

>  <HA>  (35) 
14

>  <HBD>  (35) 
2

>  <HBA>  (35) 
2

>  <MW>  (35) 
193.1215121

>  <TPSA>  (35) 
57.78

>  <LogP>  (35) 
2.01292

>  <RBs>  (35) 
3

>  <G_bound>  (35) 
-9.389075751789546

>  <G_unbound>  (35) 
0.1249875796665224

>  <deltaG>  (35) 
-9.514063331456068

>  <comRMSD>  (35) 
0.15439657345974142

>  <substructure_overlap_check>  (35) 
True

>  <energy_ratio_check>  (35) 
True

>  <const_energy/unconst_energy>  (35) 
1.9782223562356231

>  <sucos>  (35) 
0.5080175343104648

>  <interactions>  (35) 
Hydrophobic_PRO-107,HBDonor_SER-125,Hydrophobic_TYR-90,Hydrophobic_TYR-89,Hydrophobic_HIS-21

>  <total_num_ints>  (35) 
5

>  <total_num_ints_nonhyd>  (35) 
1

>  <num_uniq_frag_ints>  (35) 
1

>  <num_repl_uniq_ints>  (35) 
1

>  <num_uniq_ints_lost>  (35) 
0

>  <num_new_uniq_ints>  (35) 
4

>  <int_check>  (35) 
True

>  <ref_url>  (35) 
https://pubs.acs.org/doi/10.1021/acs.jcim.3c00276?fig=tgr1&ref=pdf

>  <submitter_name>  (35) 
Steph Wills

>  <submitter_institution>  (35) 
University of Oxford

>  <submitter_email>  (35) 
stephanie.wills@balliol.ox.ac.uk

>  <generation_date>  (35) 
2023-11-23

>  <method>  (35) 
FragNetv2

>  <original SMILES>  (35) 
CC=C(CC)C(=O)Nc1cc(C)n[nH]1

>  <original_name>  (35) 
x0556_0A-x0310_0A_87-0_B2S_rgrp-0

>  <ref_mols>  (35) 
x0556_0A,x0310_0A

>  <ref_pdb>  (35) 
x0310_0A

>  <rationale>  (35) 
FragNet: 2 rounds bioisosteric merging (no change in linker) incl [Xe]c1ccn[nH]1 replacing [Xe]c1cn[nH]c1 and CC=C(CC)C(=O)N[Xe] replacing N#CCC(=O)N[Xe]

$$$$
x0556_0A-x0310_0A_50-0_B2S_rgrp-0
     RDKit          3D

 16 16  0  0  0  0  0  0  0  0999 V2000
   12.3020   14.1960   20.8750 C   0  0  0  0  0  0  0  0  0  0  0  0
   12.3880   13.4060   22.1300 C   0  0  0  0  0  0  0  0  0  0  0  0
   12.0790   13.8770   23.3280 C   0  0  0  0  0  0  0  0  0  0  0  0
   12.0880   15.3040   23.1170 C   0  0  0  0  0  0  0  0  0  0  0  0
   12.0450   16.3900   22.8030 N   0  0  0  0  0  0  0  0  0  0  0  0
   12.9930   13.4410   24.4820 C   0  0  0  0  0  0  0  0  0  0  0  0
   14.4650   13.5450   24.3720 C   0  0  0  0  0  0  0  0  0  0  0  0
   10.7000   13.4120   23.7820 C   0  0  0  0  0  0  0  0  0  0  0  0
   10.1230   13.9510   24.7200 O   0  0  0  0  0  0  0  0  0  0  0  0
   10.1460   12.3320   23.1130 N   0  0  0  0  0  0  0  0  0  0  0  0
    9.2370   11.5790   23.8070 C   0  0  0  0  0  0  0  0  0  0  0  0
    8.2110   12.0240   24.6010 C   0  0  0  0  0  0  0  0  0  0  0  0
    7.5870   10.7500   25.0910 C   0  0  0  0  0  0  0  0  0  0  0  0
    6.3790   10.8010   26.0350 C   0  0  0  0  0  0  0  0  0  0  0  0
    8.1730    9.6480   24.6360 N   0  0  0  0  0  0  0  0  0  0  0  0
    9.1720   10.1100   23.8600 N   0  0  0  0  0  0  0  0  0  0  0  0
  1  2  1  0
  2  3  1  0
  3  4  1  0
  4  5  3  0
  3  6  1  0
  6  7  1  0
  3  8  1  0
  8  9  2  0
  8 10  1  0
 10 11  1  0
 11 12  2  0
 12 13  1  0
 13 14  1  0
 13 15  2  0
 15 16  1  0
 16 11  1  0
A    1
 C1 
A    2
 C2 
A    3
 C3 
A    4
 C4 
A    5
 N1 
A    6
 C5 
A    7
 C6 
A    8
 C7 
A    9
 O1 
A   10
 N2 
A   11
 C8 
A   12
 C9 
A   13
 C10
A   14
 C11
A   15
 N3 
A   16
 N4 
M  END
>  <similarity>  (36) 
1.0

>  <smiles>  (36) 
CCC(C#N)(CC)C(=O)Nc1cc(C)n[nH]1

>  <cmpd_id>  (36) 
ENAMINE:Z3186241070

>  <used_subnode>  (36) 
[Xe]c1cn[nH]c1

>  <used_synthon>  (36) 
CCC(C#N)(CC)C(=O)N[Xe]

>  <ref_subnode>  (36) 
[Xe]c1cn[nH]c1

>  <ref_synthon>  (36) 
N#CCC(=O)N[Xe]

>  <fragmentA>  (36) 
x0556_0A

>  <fragmentB>  (36) 
x0310_0A

>  <rev_synthon>  (36) 
[Xe]c1ccn[nH]1

>  <intermed_node1>  (36) 
CCC(C#N)(CC)C(N)=O

>  <HA>  (36) 
16

>  <HBD>  (36) 
2

>  <HBA>  (36) 
3

>  <MW>  (36) 
220.132411132

>  <TPSA>  (36) 
81.57

>  <LogP>  (36) 
1.9865999999999997

>  <RBs>  (36) 
4

>  <G_bound>  (36) 
-6.5927789768460725

>  <G_unbound>  (36) 
0.34905041721765145

>  <deltaG>  (36) 
-6.941829394063724

>  <comRMSD>  (36) 
0.5731381567363794

>  <substructure_overlap_check>  (36) 
True

>  <energy_ratio_check>  (36) 
True

>  <const_energy/unconst_energy>  (36) 
5.531823612528729

>  <sucos>  (36) 
0.5083650246087783

>  <interactions>  (36) 
Hydrophobic_PRO-107,HBDonor_SER-125,Hydrophobic_TYR-90,Hydrophobic_TYR-89,Hydrophobic_HIS-21

>  <total_num_ints>  (36) 
5

>  <total_num_ints_nonhyd>  (36) 
1

>  <num_uniq_frag_ints>  (36) 
1

>  <num_repl_uniq_ints>  (36) 
1

>  <num_uniq_ints_lost>  (36) 
0

>  <num_new_uniq_ints>  (36) 
4

>  <int_check>  (36) 
True

>  <ref_url>  (36) 
https://pubs.acs.org/doi/10.1021/acs.jcim.3c00276?fig=tgr1&ref=pdf

>  <submitter_name>  (36) 
Steph Wills

>  <submitter_institution>  (36) 
University of Oxford

>  <submitter_email>  (36) 
stephanie.wills@balliol.ox.ac.uk

>  <generation_date>  (36) 
2023-11-23

>  <method>  (36) 
FragNetv2

>  <original SMILES>  (36) 
CCC(C#N)(CC)C(=O)Nc1cc(C)n[nH]1

>  <original_name>  (36) 
x0556_0A-x0310_0A_50-0_B2S_rgrp-0

>  <ref_mols>  (36) 
x0556_0A,x0310_0A

>  <ref_pdb>  (36) 
x0310_0A

>  <rationale>  (36) 
FragNet: 2 rounds bioisosteric merging (no change in linker) incl [Xe]c1ccn[nH]1 replacing [Xe]c1cn[nH]c1 and CCC(C#N)(CC)C(=O)N[Xe] replacing N#CCC(=O)N[Xe]

$$$$
x0556_0A-x0310_0A_44848_B1X
     RDKit          3D

 18 18  0  0  0  0  0  0  0  0999 V2000
   10.5400    7.7200   21.9220 C   0  0  0  0  0  0  0  0  0  0  0  0
    9.5640    8.5110   22.2530 C   0  0  0  0  0  0  0  0  0  0  0  0
    9.6020    8.9920   23.5900 C   0  0  1  0  0  0  0  0  0  0  0  0
   11.0170    9.3750   23.3320 C   0  0  0  0  0  0  0  0  0  0  0  0
    8.8910   10.0970   23.9970 N   0  0  0  0  0  0  0  0  0  0  0  0
    7.8750    9.7170   24.8670 N   0  0  0  0  0  0  0  0  0  0  0  0
    7.2090   10.9800   25.2390 C   0  0  0  0  0  0  0  0  0  0  0  0
    7.9360   12.0470   24.5110 C   0  0  0  0  0  0  0  0  0  0  0  0
    9.0300   11.4420   23.7130 C   0  0  0  0  0  0  0  0  0  0  0  0
    9.8890   12.1440   22.9530 N   0  0  0  0  0  0  0  0  0  0  0  0
   10.5720   13.1820   23.4340 C   0  0  0  0  0  0  0  0  0  0  0  0
   11.0140   13.4630   24.5410 O   0  0  0  0  0  0  0  0  0  0  0  0
   10.5840   13.9300   22.0830 C   0  0  0  0  0  0  0  0  0  0  0  0
   12.2720   14.1350   21.5590 S   0  0  0  0  0  0  0  0  0  0  0  0
   12.5270   15.3790   22.7890 C   0  0  0  0  0  0  0  0  0  0  0  0
   13.8160   15.3100   23.1170 F   0  0  0  0  0  0  0  0  0  0  0  0
   11.8300   15.1230   23.9150 F   0  0  0  0  0  0  0  0  0  0  0  0
   12.1410   16.5800   22.3170 F   0  0  0  0  0  0  0  0  0  0  0  0
  1  2  1  0
  2  3  1  0
  3  4  1  6
  3  5  1  0
  5  6  1  0
  6  7  2  0
  7  8  1  0
  8  9  2  0
  9 10  1  0
 10 11  1  0
 11 12  2  0
 11 13  1  0
 13 14  1  0
 14 15  1  0
 15 16  1  0
 15 17  1  0
 15 18  1  0
  9  5  1  0
A    1
 C1 
A    2
 C2 
A    3
 C3 
A    4
 C4 
A    5
 N1 
A    6
 N2 
A    7
 C5 
A    8
 C6 
A    9
 C7 
A   10
 N3 
A   11
 C8 
A   12
 O1 
A   13
 C9 
A   14
 S1 
A   15
 C10
A   16
 F1 
A   17
 F2 
A   18
 F3 
M  END
>  <similarity>  (37) 
1.0

>  <smiles>  (37) 
CCC(C)n1nccc1NC(=O)CSC(F)(F)F

>  <cmpd_id>  (37) 
ENAMINE:Z392233794

>  <used_subnode>  (37) 
c1cn[nH]c1

>  <used_synthon>  (37) 
O=C(CSC(F)(F)F)N[Xe]

>  <ref_subnode>  (37) 
c1cn[nH]c1

>  <ref_synthon>  (37) 
N#CCC(=O)N[Xe]

>  <fragmentA>  (37) 
x0556_0A

>  <fragmentB>  (37) 
x0310_0A

>  <HA>  (37) 
18

>  <HBD>  (37) 
1

>  <HBA>  (37) 
4

>  <MW>  (37) 
281.08096772799996

>  <TPSA>  (37) 
46.92

>  <LogP>  (37) 
3.045600000000001

>  <RBs>  (37) 
5

>  <G_bound>  (37) 
-2.2340096671984213

>  <G_unbound>  (37) 
2.611987782345735

>  <deltaG>  (37) 
-4.845997449544156

>  <comRMSD>  (37) 
0.7441238239590895

>  <UFFGibbs>  (37) 
17164.10608397112

>  <strain_per_HA>  (37) 
953.5614491095067

>  <substructure_overlap_check>  (37) 
True

>  <energy_ratio_check>  (37) 
True

>  <const_energy/unconst_energy>  (37) 
0.9946236494110204

>  <sucos>  (37) 
0.508366659952528

>  <interactions>  (37) 
HBDonor_SER-125,Hydrophobic_TYR-90,Hydrophobic_HIS-21,Hydrophobic_VAL-132,Hydrophobic_PRO-107,Hydrophobic_CYS-110,Hydrophobic_VAL-124,Hydrophobic_ASP-109

>  <total_num_ints>  (37) 
8

>  <total_num_ints_nonhyd>  (37) 
1

>  <num_uniq_frag_ints>  (37) 
1

>  <num_repl_uniq_ints>  (37) 
1

>  <num_uniq_ints_lost>  (37) 
0

>  <num_new_uniq_ints>  (37) 
7

>  <int_check>  (37) 
True

>  <ref_url>  (37) 
https://pubs.acs.org/doi/10.1021/acs.jcim.3c00276?fig=tgr1&ref=pdf

>  <submitter_name>  (37) 
Steph Wills

>  <submitter_institution>  (37) 
University of Oxford

>  <submitter_email>  (37) 
stephanie.wills@balliol.ox.ac.uk

>  <generation_date>  (37) 
2023-11-23

>  <method>  (37) 
FragNetv2

>  <original SMILES>  (37) 
CCC(C)n1nccc1NC(=O)CSC(F)(F)F

>  <original_name>  (37) 
x0556_0A-x0310_0A_44848_B1X

>  <ref_mols>  (37) 
x0556_0A,x0310_0A

>  <ref_pdb>  (37) 
x0310_0A

>  <rationale>  (37) 
FragNet: 1 round bioisosteric merging incl c1cn[nH]c1 and O=C(CSC(F)(F)F)N[Xe] replacing N#CCC(=O)N[Xe]

$$$$
x0556_0A-x0310_0A_14244_B1X
     RDKit          3D

 15 15  0  0  0  0  0  0  0  0999 V2000
    4.3990    9.2480   28.0900 C   0  0  0  0  0  0  0  0  0  0  0  0
    4.7920   10.7120   28.2840 C   0  0  0  0  0  0  0  0  0  0  0  0
    6.1380   11.0150   27.6130 C   0  0  0  0  0  0  0  0  0  0  0  0
    6.0080   11.0330   26.0890 C   0  0  0  0  0  0  0  0  0  0  0  0
    7.2870   10.9790   25.2430 C   0  0  0  0  0  0  0  0  0  0  0  0
    7.9480   12.1020   24.6830 C   0  0  0  0  0  0  0  0  0  0  0  0
    9.0350   11.6000   23.9880 C   0  0  0  0  0  0  0  0  0  0  0  0
   10.0480   12.1990   23.2440 N   0  0  0  0  0  0  0  0  0  0  0  0
   10.6790   13.3360   23.7390 C   0  0  0  0  0  0  0  0  0  0  0  0
   10.2730   13.9880   24.6840 O   0  0  0  0  0  0  0  0  0  0  0  0
   11.9660   13.7290   23.0120 C   0  0  0  0  0  0  0  0  0  0  0  0
   13.1320   13.7080   24.0170 C   0  0  0  0  0  0  0  0  0  0  0  0
   12.1870   14.9740   22.4450 C   0  0  0  0  0  0  0  0  0  0  0  0
    8.9660   10.2480   24.1660 N   0  0  0  0  0  0  0  0  0  0  0  0
    7.9270    9.8510   24.9150 N   0  0  0  0  0  0  0  0  0  0  0  0
  1  2  1  0
  2  3  1  0
  3  4  1  0
  4  5  1  0
  5  6  1  0
  6  7  2  0
  7  8  1  0
  8  9  1  0
  9 10  2  0
  9 11  1  0
 11 12  1  0
 11 13  1  0
  7 14  1  0
 14 15  1  0
 15  5  2  0
A    1
 C1 
A    2
 C2 
A    3
 C3 
A    4
 C4 
A    5
 C5 
A    6
 C6 
A    7
 C7 
A    8
 N1 
A    9
 C8 
A   10
 O1 
A   11
 C9 
A   12
 C10
A   13
 C11
A   14
 N2 
A   15
 N3 
M  END
>  <similarity>  (38) 
1.0

>  <smiles>  (38) 
CCCCc1cc(NC(=O)C(C)C)[nH]n1

>  <cmpd_id>  (38) 
ENAMINE:Z932109700

>  <used_subnode>  (38) 
c1cn[nH]c1

>  <used_synthon>  (38) 
CC(C)C(=O)N[Xe]

>  <ref_subnode>  (38) 
c1cn[nH]c1

>  <ref_synthon>  (38) 
N#CCC(=O)N[Xe]

>  <fragmentA>  (38) 
x0556_0A

>  <fragmentB>  (38) 
x0310_0A

>  <HA>  (38) 
15

>  <HBD>  (38) 
2

>  <HBA>  (38) 
2

>  <MW>  (38) 
209.152812228

>  <TPSA>  (38) 
57.78

>  <LogP>  (38) 
2.3468

>  <RBs>  (38) 
5

>  <G_bound>  (38) 
-7.9938264684523315

>  <G_unbound>  (38) 
0.22366679173639317

>  <deltaG>  (38) 
-8.217493260188725

>  <comRMSD>  (38) 
0.6798076048951023

>  <UFFGibbs>  (38) 
59.47352827351863

>  <strain_per_HA>  (38) 
3.9649018849012423

>  <substructure_overlap_check>  (38) 
True

>  <energy_ratio_check>  (38) 
True

>  <const_energy/unconst_energy>  (38) 
0.9902004159732924

>  <sucos>  (38) 
0.5084302174006823

>  <interactions>  (38) 
HBDonor_SER-125,Hydrophobic_TYR-90,Hydrophobic_HIS-21,Hydrophobic_PRO-107,Hydrophobic_TYR-89

>  <total_num_ints>  (38) 
5

>  <total_num_ints_nonhyd>  (38) 
1

>  <num_uniq_frag_ints>  (38) 
1

>  <num_repl_uniq_ints>  (38) 
1

>  <num_uniq_ints_lost>  (38) 
0

>  <num_new_uniq_ints>  (38) 
4

>  <int_check>  (38) 
True

>  <ref_url>  (38) 
https://pubs.acs.org/doi/10.1021/acs.jcim.3c00276?fig=tgr1&ref=pdf

>  <submitter_name>  (38) 
Steph Wills

>  <submitter_institution>  (38) 
University of Oxford

>  <submitter_email>  (38) 
stephanie.wills@balliol.ox.ac.uk

>  <generation_date>  (38) 
2023-11-23

>  <method>  (38) 
FragNetv2

>  <original SMILES>  (38) 
CCCCc1cc(NC(=O)C(C)C)[nH]n1

>  <original_name>  (38) 
x0556_0A-x0310_0A_14244_B1X

>  <ref_mols>  (38) 
x0556_0A,x0310_0A

>  <ref_pdb>  (38) 
x0310_0A

>  <rationale>  (38) 
FragNet: 1 round bioisosteric merging incl c1cn[nH]c1 and CC(C)C(=O)N[Xe] replacing N#CCC(=O)N[Xe]

$$$$
x0556_0A-x0310_0A_2854_B1X
     RDKit          3D

 21 22  0  0  0  0  0  0  0  0999 V2000
    9.8230    9.3370   23.0270 C   0  0  0  0  0  0  0  0  0  0  0  0
    9.0320   10.2450   23.8270 N   0  0  0  0  0  0  0  0  0  0  0  0
    8.0860    9.8130   24.7030 N   0  0  0  0  0  0  0  0  0  0  0  0
    7.5940   10.9460   25.2310 C   0  0  0  0  0  0  0  0  0  0  0  0
    6.5020   11.0350   26.3070 C   0  0  0  0  0  0  0  0  0  0  0  0
    6.4740   12.2610   27.1730 C   0  0  0  0  0  0  0  0  0  0  0  0
    5.3700   12.2370   28.1940 C   0  0  0  0  0  0  0  0  0  0  0  0
    4.4890   10.7810   28.0260 S   0  0  0  0  0  0  0  0  0  0  0  0
    5.4660   10.1870   26.6960 C   0  0  0  0  0  0  0  0  0  0  0  0
    8.2170   12.0760   24.6880 C   0  0  0  0  0  0  0  0  0  0  0  0
    9.1450   11.6050   23.7930 C   0  0  0  0  0  0  0  0  0  0  0  0
   10.0480   12.2850   23.0000 N   0  0  0  0  0  0  0  0  0  0  0  0
   10.8670   13.1420   23.6080 C   0  0  0  0  0  0  0  0  0  0  0  0
   10.5910   13.6430   24.6890 O   0  0  0  0  0  0  0  0  0  0  0  0
   12.1380   13.5190   22.9680 C   0  0  0  0  0  0  0  0  0  0  0  0
   12.4400   14.9930   23.1640 C   0  0  0  0  0  0  0  0  0  0  0  0
   12.0840   15.8110   21.9420 C   0  0  0  0  0  0  0  0  0  0  0  0
   11.0180   15.1300   21.0240 C   0  0  0  0  0  0  0  0  0  0  0  0
   11.6100   14.5300   19.9770 F   0  0  0  0  0  0  0  0  0  0  0  0
   10.3040   14.2130   21.6930 F   0  0  0  0  0  0  0  0  0  0  0  0
   10.1190   15.9980   20.5200 F   0  0  0  0  0  0  0  0  0  0  0  0
  1  2  1  0
  2  3  1  0
  3  4  2  0
  4  5  1  0
  5  6  1  0
  6  7  2  0
  7  8  1  0
  8  9  1  0
  4 10  1  0
 10 11  2  0
 11 12  1  0
 12 13  1  0
 13 14  2  0
 13 15  1  0
 15 16  1  0
 16 17  1  0
 17 18  1  0
 18 19  1  0
 18 20  1  0
 18 21  1  0
 11  2  1  0
  9  5  2  0
A    1
 C1 
A    2
 N1 
A    3
 N2 
A    4
 C2 
A    5
 C3 
A    6
 C4 
A    7
 C5 
A    8
 S1 
A    9
 C6 
A   10
 C7 
A   11
 C8 
A   12
 N3 
A   13
 C9 
A   14
 O1 
A   15
 C10
A   16
 C11
A   17
 C12
A   18
 C13
A   19
 F1 
A   20
 F2 
A   21
 F3 
M  END
>  <similarity>  (39) 
1.0

>  <smiles>  (39) 
Cn1nc(-c2ccsc2)cc1NC(=O)CCCC(F)(F)F

>  <cmpd_id>  (39) 
ENAMINE:Z1902752430

>  <used_subnode>  (39) 
c1cn[nH]c1

>  <used_synthon>  (39) 
O=C(CCCC(F)(F)F)N[Xe]

>  <ref_subnode>  (39) 
c1cn[nH]c1

>  <ref_synthon>  (39) 
N#CCC(=O)N[Xe]

>  <fragmentA>  (39) 
x0556_0A

>  <fragmentB>  (39) 
x0310_0A

>  <HA>  (39) 
21

>  <HBD>  (39) 
1

>  <HBA>  (39) 
4

>  <MW>  (39) 
317.08096772799996

>  <TPSA>  (39) 
46.92

>  <LogP>  (39) 
3.8197000000000028

>  <RBs>  (39) 
5

>  <G_bound>  (39) 
-6.394842716322937

>  <G_unbound>  (39) 
0.3207645053214124

>  <deltaG>  (39) 
-6.715607221644349

>  <comRMSD>  (39) 
0.5469901025904715

>  <UFFGibbs>  (39) 
108.56806419946432

>  <strain_per_HA>  (39) 
5.16990781902211

>  <substructure_overlap_check>  (39) 
True

>  <energy_ratio_check>  (39) 
True

>  <const_energy/unconst_energy>  (39) 
1.0227055246137922

>  <sucos>  (39) 
0.5089867845667693

>  <interactions>  (39) 
HBDonor_SER-125,Hydrophobic_TYR-90,Hydrophobic_HIS-21,Hydrophobic_PRO-107,Hydrophobic_TYR-89

>  <total_num_ints>  (39) 
5

>  <total_num_ints_nonhyd>  (39) 
1

>  <num_uniq_frag_ints>  (39) 
1

>  <num_repl_uniq_ints>  (39) 
1

>  <num_uniq_ints_lost>  (39) 
0

>  <num_new_uniq_ints>  (39) 
4

>  <int_check>  (39) 
True

>  <ref_url>  (39) 
https://pubs.acs.org/doi/10.1021/acs.jcim.3c00276?fig=tgr1&ref=pdf

>  <submitter_name>  (39) 
Steph Wills

>  <submitter_institution>  (39) 
University of Oxford

>  <submitter_email>  (39) 
stephanie.wills@balliol.ox.ac.uk

>  <generation_date>  (39) 
2023-11-23

>  <method>  (39) 
FragNetv2

>  <original SMILES>  (39) 
Cn1nc(-c2ccsc2)cc1NC(=O)CCCC(F)(F)F

>  <original_name>  (39) 
x0556_0A-x0310_0A_2854_B1X

>  <ref_mols>  (39) 
x0556_0A,x0310_0A

>  <ref_pdb>  (39) 
x0310_0A

>  <rationale>  (39) 
FragNet: 1 round bioisosteric merging incl c1cn[nH]c1 and O=C(CCCC(F)(F)F)N[Xe] replacing N#CCC(=O)N[Xe]

$$$$
x0556_0A-x0310_0A_25193_B1X
     RDKit          3D

 16 16  0  0  0  0  0  0  0  0999 V2000
    5.7660   12.6670   25.9140 C   0  0  0  0  0  0  0  0  0  0  0  0
    6.4720   11.3370   26.0890 C   0  0  0  0  0  0  0  0  0  0  0  0
    7.5890   11.1740   25.0960 C   0  0  0  0  0  0  0  0  0  0  0  0
    8.2530   12.0520   24.3790 C   0  0  0  0  0  0  0  0  0  0  0  0
    9.2470   11.5500   23.5400 C   0  0  0  0  0  0  0  0  0  0  0  0
   10.0550   12.3300   22.7030 N   0  0  0  0  0  0  0  0  0  0  0  0
   11.0590   13.1600   23.1380 C   0  0  0  0  0  0  0  0  0  0  0  0
   11.5540   13.0940   24.2540 O   0  0  0  0  0  0  0  0  0  0  0  0
   11.4680   14.1940   22.1090 C   0  0  0  0  0  0  0  0  0  0  0  0
   10.2760   14.6820   21.3290 C   0  0  0  0  0  0  0  0  0  0  0  0
   12.5840   13.7820   21.1200 C   0  0  0  0  0  0  0  0  0  0  0  0
   12.0270   15.2300   22.7980 C   0  0  0  0  0  0  0  0  0  0  0  0
   12.0730   15.2240   24.2990 C   0  0  0  0  0  0  0  0  0  0  0  0
    9.1640   10.2510   23.7820 N   0  0  0  0  0  0  0  0  0  0  0  0
    9.9020    9.1850   23.2500 C   0  0  0  0  0  0  0  0  0  0  0  0
    8.1700    9.9740   24.7210 N   0  0  0  0  0  0  0  0  0  0  0  0
  1  2  1  0
  2  3  1  0
  3  4  1  0
  4  5  2  0
  5  6  1  0
  6  7  1  0
  7  8  2  0
  7  9  1  0
  9 10  1  0
  9 11  1  0
  9 12  1  0
 12 13  1  0
  5 14  1  0
 14 15  1  0
 14 16  1  0
 16  3  2  0
A    1
 C1 
A    2
 C2 
A    3
 C3 
A    4
 C4 
A    5
 C5 
A    6
 N1 
A    7
 C6 
A    8
 O1 
A    9
 C7 
A   10
 C8 
A   11
 C9 
A   12
 C10
A   13
 C11
A   14
 N2 
A   15
 C12
A   16
 N3 
M  END
>  <similarity>  (40) 
1.0

>  <smiles>  (40) 
CCc1cc(NC(=O)C(C)(C)CC)n(C)n1

>  <cmpd_id>  (40) 
ENAMINE:Z1217420458

>  <used_subnode>  (40) 
c1cn[nH]c1

>  <used_synthon>  (40) 
CCC(C)(C)C(=O)N[Xe]

>  <ref_subnode>  (40) 
c1cn[nH]c1

>  <ref_synthon>  (40) 
N#CCC(=O)N[Xe]

>  <fragmentA>  (40) 
x0556_0A

>  <fragmentB>  (40) 
x0310_0A

>  <HA>  (40) 
16

>  <HBD>  (40) 
1

>  <HBA>  (40) 
3

>  <MW>  (40) 
223.168462292

>  <TPSA>  (40) 
46.92

>  <LogP>  (40) 
2.3572000000000006

>  <RBs>  (40) 
4

>  <G_bound>  (40) 
-11.550249764877112

>  <G_unbound>  (40) 
-0.19859036746237912

>  <deltaG>  (40) 
-11.351659397414732

>  <comRMSD>  (40) 
0.7016444771528054

>  <UFFGibbs>  (40) 
1727.0117469343438

>  <strain_per_HA>  (40) 
107.93823418339649

>  <substructure_overlap_check>  (40) 
True

>  <energy_ratio_check>  (40) 
True

>  <const_energy/unconst_energy>  (40) 
0.9598335813221525

>  <sucos>  (40) 
0.5100515584899006

>  <interactions>  (40) 
HBDonor_SER-125,Hydrophobic_GLU-88,Hydrophobic_TYR-90,Hydrophobic_HIS-21,Hydrophobic_PRO-107,Hydrophobic_TYR-89

>  <total_num_ints>  (40) 
6

>  <total_num_ints_nonhyd>  (40) 
1

>  <num_uniq_frag_ints>  (40) 
1

>  <num_repl_uniq_ints>  (40) 
1

>  <num_uniq_ints_lost>  (40) 
0

>  <num_new_uniq_ints>  (40) 
5

>  <int_check>  (40) 
True

>  <ref_url>  (40) 
https://pubs.acs.org/doi/10.1021/acs.jcim.3c00276?fig=tgr1&ref=pdf

>  <submitter_name>  (40) 
Steph Wills

>  <submitter_institution>  (40) 
University of Oxford

>  <submitter_email>  (40) 
stephanie.wills@balliol.ox.ac.uk

>  <generation_date>  (40) 
2023-11-23

>  <method>  (40) 
FragNetv2

>  <original SMILES>  (40) 
CCc1cc(NC(=O)C(C)(C)CC)n(C)n1

>  <original_name>  (40) 
x0556_0A-x0310_0A_25193_B1X

>  <ref_mols>  (40) 
x0556_0A,x0310_0A

>  <ref_pdb>  (40) 
x0310_0A

>  <rationale>  (40) 
FragNet: 1 round bioisosteric merging incl c1cn[nH]c1 and CCC(C)(C)C(=O)N[Xe] replacing N#CCC(=O)N[Xe]

$$$$
x0556_0A-x0310_0A_54250_B1X
     RDKit          3D

 20 20  0  0  0  0  0  0  0  0999 V2000
   11.9020   14.8980   25.7200 C   0  0  0  0  0  0  0  0  0  0  0  0
   12.8690   14.0480   24.8470 C   0  0  0  0  0  0  0  0  0  0  0  0
   13.2720   14.8660   23.6490 C   0  0  0  0  0  0  0  0  0  0  0  0
   12.0770   15.5700   23.0720 C   0  0  0  0  0  0  0  0  0  0  0  0
   11.7540   14.7880   21.9990 C   0  0  0  0  0  0  0  0  0  0  0  0
   11.8940   13.3500   22.5190 C   0  0  0  0  0  0  0  0  0  0  0  0
   10.7130   12.9490   23.4080 C   0  0  0  0  0  0  0  0  0  0  0  0
   10.3950   13.5480   24.4180 O   0  0  0  0  0  0  0  0  0  0  0  0
   10.0250   11.8410   22.9940 N   0  0  0  0  0  0  0  0  0  0  0  0
    8.9720   11.3060   23.8910 C   0  0  0  0  0  0  0  0  0  0  0  0
    8.7500    9.9670   24.1490 N   0  0  0  0  0  0  0  0  0  0  0  0
    7.7180    9.9580   25.0220 N   0  0  0  0  0  0  0  0  0  0  0  0
    7.3170   11.2780   25.2890 C   0  0  0  0  0  0  0  0  0  0  0  0
    6.2360   11.3870   26.2040 C   0  0  0  0  0  0  0  0  0  0  0  0
    5.9710   12.4070   26.8310 O   0  0  0  0  0  0  0  0  0  0  0  0
    5.6110   10.3350   26.2890 O   0  0  0  0  0  0  0  0  0  0  0  0
    5.2790    9.8980   27.6150 C   0  0  0  0  0  0  0  0  0  0  0  0
    4.3960    8.8110   27.7110 C   0  0  0  0  0  0  0  0  0  0  0  0
    8.0750   12.1690   24.5960 C   0  0  0  0  0  0  0  0  0  0  0  0
    7.9910   13.6910   24.5830 C   0  0  0  0  0  0  0  0  0  0  0  0
  1  2  1  0
  2  3  1  0
  3  4  1  0
  4  5  1  0
  5  6  1  0
  6  7  1  0
  7  8  2  0
  7  9  1  0
  9 10  1  0
 10 11  2  0
 11 12  1  0
 12 13  1  0
 13 14  1  0
 14 15  2  0
 14 16  1  0
 16 17  1  0
 17 18  1  0
 13 19  2  0
 19 20  1  0
 19 10  1  0
A    1
 C1 
A    2
 C2 
A    3
 C3 
A    4
 C4 
A    5
 C5 
A    6
 C6 
A    7
 C7 
A    8
 O1 
A    9
 N1 
A   10
 C8 
A   11
 N2 
A   12
 N3 
A   13
 C9 
A   14
 C10
A   15
 O2 
A   16
 O3 
A   17
 C11
A   18
 C12
A   19
 C13
A   20
 C14
M  END
>  <similarity>  (41) 
1.0

>  <smiles>  (41) 
CCCCCCC(=O)Nc1n[nH]c(C(=O)OCC)c1C

>  <cmpd_id>  (41) 
ENAMINE:Z2964457292

>  <used_subnode>  (41) 
c1cn[nH]c1

>  <used_synthon>  (41) 
CCCCCCC(=O)N[Xe]

>  <ref_subnode>  (41) 
c1cn[nH]c1

>  <ref_synthon>  (41) 
N#CCC(=O)N[Xe]

>  <fragmentA>  (41) 
x0556_0A

>  <fragmentB>  (41) 
x0310_0A

>  <HA>  (41) 
20

>  <HBD>  (41) 
2

>  <HBA>  (41) 
4

>  <MW>  (41) 
281.173941596

>  <TPSA>  (41) 
84.08

>  <LogP>  (41) 
2.803720000000001

>  <RBs>  (41) 
8

>  <G_bound>  (41) 
-4.381103537255098

>  <G_unbound>  (41) 
0.12811489608762913

>  <deltaG>  (41) 
-4.509218433342727

>  <comRMSD>  (41) 
0.4646881421697041

>  <UFFGibbs>  (41) 
962.2700089065647

>  <strain_per_HA>  (41) 
48.113500445328235

>  <substructure_overlap_check>  (41) 
True

>  <energy_ratio_check>  (41) 
True

>  <const_energy/unconst_energy>  (41) 
1.0920226997663445

>  <sucos>  (41) 
0.510151146579054

>  <interactions>  (41) 
HBDonor_SER-125,Hydrophobic_GLU-88,Hydrophobic_TYR-90,Hydrophobic_HIS-21,HBDonor_SER-105,Hydrophobic_PRO-107,Hydrophobic_TYR-89

>  <total_num_ints>  (41) 
7

>  <total_num_ints_nonhyd>  (41) 
2

>  <num_uniq_frag_ints>  (41) 
1

>  <num_repl_uniq_ints>  (41) 
1

>  <num_uniq_ints_lost>  (41) 
0

>  <num_new_uniq_ints>  (41) 
6

>  <int_check>  (41) 
True

>  <ref_url>  (41) 
https://pubs.acs.org/doi/10.1021/acs.jcim.3c00276?fig=tgr1&ref=pdf

>  <submitter_name>  (41) 
Steph Wills

>  <submitter_institution>  (41) 
University of Oxford

>  <submitter_email>  (41) 
stephanie.wills@balliol.ox.ac.uk

>  <generation_date>  (41) 
2023-11-23

>  <method>  (41) 
FragNetv2

>  <original SMILES>  (41) 
CCCCCCC(=O)Nc1n[nH]c(C(=O)OCC)c1C

>  <original_name>  (41) 
x0556_0A-x0310_0A_54250_B1X

>  <ref_mols>  (41) 
x0556_0A,x0310_0A

>  <ref_pdb>  (41) 
x0310_0A

>  <rationale>  (41) 
FragNet: 1 round bioisosteric merging incl c1cn[nH]c1 and CCCCCCC(=O)N[Xe] replacing N#CCC(=O)N[Xe]

$$$$
x0556_0A-x0310_0A_54281_B1X
     RDKit          3D

 15 16  0  0  0  0  0  0  0  0999 V2000
   10.7210    8.6360   23.2420 C   0  0  0  0  0  0  0  0  0  0  0  0
    9.4670    9.2630   22.8490 C   0  0  0  0  0  0  0  0  0  0  0  0
    8.8740   10.2410   23.7410 N   0  0  0  0  0  0  0  0  0  0  0  0
    7.9700    9.8230   24.6650 N   0  0  0  0  0  0  0  0  0  0  0  0
    7.6140   10.9460   25.2520 C   0  0  0  0  0  0  0  0  0  0  0  0
    8.3150   12.1780   24.7130 C   0  0  0  0  0  0  0  0  0  0  0  0
    7.9690   13.5320   25.3300 C   0  0  0  0  0  0  0  0  0  0  0  0
    9.1480   11.6850   23.7290 C   0  0  0  0  0  0  0  0  0  0  0  0
   10.0460   12.2280   22.8790 N   0  0  0  0  0  0  0  0  0  0  0  0
   11.1060   12.9070   23.3380 C   0  0  0  0  0  0  0  0  0  0  0  0
   11.2800   13.1950   24.5180 O   0  0  0  0  0  0  0  0  0  0  0  0
   12.0680   13.3140   22.1790 C   0  0  0  0  0  0  0  0  0  0  0  0
   12.4070   14.7370   22.0250 C   0  0  0  0  0  0  0  0  0  0  0  0
   12.0210   15.9900   22.7680 C   0  0  0  0  0  0  0  0  0  0  0  0
   11.4590   14.7270   23.2470 C   0  0  0  0  0  0  0  0  0  0  0  0
  1  2  1  0
  2  3  1  0
  3  4  1  0
  4  5  2  0
  5  6  1  0
  6  7  1  0
  6  8  2  0
  8  9  1  0
  9 10  1  0
 10 11  2  0
 10 12  1  0
 12 13  2  3
 13 14  1  0
 14 15  1  0
  8  3  1  0
 15 13  1  0
A    1
 C1 
A    2
 C2 
A    3
 N1 
A    4
 N2 
A    5
 C3 
A    6
 C4 
A    7
 C5 
A    8
 C6 
A    9
 N3 
A   10
 C7 
A   11
 O1 
A   12
 C8 
A   13
 C9 
A   14
 C10
A   15
 C11
M  END
>  <similarity>  (42) 
1.0

>  <smiles>  (42) 
CCn1ncc(C)c1NC(=O)C=C1CC1

>  <cmpd_id>  (42) 
ENAMINE:Z4100347929

>  <used_subnode>  (42) 
c1cn[nH]c1

>  <used_synthon>  (42) 
O=C(C=C1CC1)N[Xe]

>  <ref_subnode>  (42) 
c1cn[nH]c1

>  <ref_synthon>  (42) 
N#CCC(=O)N[Xe]

>  <fragmentA>  (42) 
x0556_0A

>  <fragmentB>  (42) 
x0310_0A

>  <HA>  (42) 
15

>  <HBD>  (42) 
1

>  <HBA>  (42) 
3

>  <MW>  (42) 
205.1215121

>  <TPSA>  (42) 
46.92

>  <LogP>  (42) 
1.8701199999999998

>  <RBs>  (42) 
3

>  <G_bound>  (42) 
-3.5225702476533884

>  <G_unbound>  (42) 
0.31692361880705167

>  <deltaG>  (42) 
-3.8394938664604403

>  <comRMSD>  (42) 
0.5112213425742395

>  <UFFGibbs>  (42) 
1833.1478414113592

>  <strain_per_HA>  (42) 
122.20985609409061

>  <substructure_overlap_check>  (42) 
True

>  <energy_ratio_check>  (42) 
True

>  <const_energy/unconst_energy>  (42) 
0.9989902273010454

>  <sucos>  (42) 
0.5103927750572367

>  <interactions>  (42) 
HBDonor_SER-125,Hydrophobic_TYR-90,Hydrophobic_HIS-21,Hydrophobic_PRO-107,Hydrophobic_CYS-110,Hydrophobic_VAL-124,Hydrophobic_TYR-89,Hydrophobic_ASP-109

>  <total_num_ints>  (42) 
8

>  <total_num_ints_nonhyd>  (42) 
1

>  <num_uniq_frag_ints>  (42) 
1

>  <num_repl_uniq_ints>  (42) 
1

>  <num_uniq_ints_lost>  (42) 
0

>  <num_new_uniq_ints>  (42) 
7

>  <int_check>  (42) 
True

>  <ref_url>  (42) 
https://pubs.acs.org/doi/10.1021/acs.jcim.3c00276?fig=tgr1&ref=pdf

>  <submitter_name>  (42) 
Steph Wills

>  <submitter_institution>  (42) 
University of Oxford

>  <submitter_email>  (42) 
stephanie.wills@balliol.ox.ac.uk

>  <generation_date>  (42) 
2023-11-23

>  <method>  (42) 
FragNetv2

>  <original SMILES>  (42) 
CCn1ncc(C)c1NC(=O)C=C1CC1

>  <original_name>  (42) 
x0556_0A-x0310_0A_54281_B1X

>  <ref_mols>  (42) 
x0556_0A,x0310_0A

>  <ref_pdb>  (42) 
x0310_0A

>  <rationale>  (42) 
FragNet: 1 round bioisosteric merging incl c1cn[nH]c1 and O=C(C=C1CC1)N[Xe] replacing N#CCC(=O)N[Xe]

$$$$
x0556_0A-x0310_0A_39483_B1X
     RDKit          3D

 22 22  0  0  0  0  0  0  0  0999 V2000
    8.9160   15.5750   27.0410 C   0  0  0  0  0  0  0  0  0  0  0  0
    7.5630   14.9240   27.3950 C   0  0  0  0  0  0  0  0  0  0  0  0
    7.4290   13.7070   27.3360 O   0  0  0  0  0  0  0  0  0  0  0  0
    6.7160   13.2100   26.2850 C   0  0  0  0  0  0  0  0  0  0  0  0
    5.4740   13.6780   26.0140 O   0  0  0  0  0  0  0  0  0  0  0  0
    7.4100   12.1100   25.4750 C   0  0  0  0  0  0  0  0  0  0  0  0
    7.1700   10.6320   25.4860 C   0  0  0  0  0  0  0  0  0  0  0  0
    8.0600   10.1070   24.5900 N   0  0  0  0  0  0  0  0  0  0  0  0
    8.8000   11.1490   24.0460 N   0  0  0  0  0  0  0  0  0  0  0  0
    9.6900   10.8170   23.1580 C   0  0  0  0  0  0  0  0  0  0  0  0
    9.5840    9.5230   22.7380 C   0  0  0  0  0  0  0  0  0  0  0  0
   10.7270    9.0470   23.4460 C   0  0  0  0  0  0  0  0  0  0  0  0
   11.3310    7.8890   23.3680 N   0  0  0  0  0  0  0  0  0  0  0  0
    8.5250   12.3570   24.4810 C   0  0  0  0  0  0  0  0  0  0  0  0
    9.2010   13.5410   24.0460 N   0  0  0  0  0  0  0  0  0  0  0  0
   10.6260   13.5260   23.9320 C   0  0  0  0  0  0  0  0  0  0  0  0
   11.6360   12.8480   24.4680 O   0  0  0  0  0  0  0  0  0  0  0  0
   11.0580   14.4850   23.0560 C   0  0  0  0  0  0  0  0  0  0  0  0
   12.1150   14.3120   22.1780 C   0  0  0  0  0  0  0  0  0  0  0  0
   12.2530   15.4740   21.2940 C   0  0  0  0  0  0  0  0  0  0  0  0
   11.8930   16.7540   21.7010 C   0  0  0  0  0  0  0  0  0  0  0  0
   13.6840   15.6400   21.0660 C   0  0  0  0  0  0  0  0  0  0  0  0
  1  2  1  0
  2  3  1  0
  3  4  1  0
  4  5  2  0
  4  6  1  0
  6  7  1  0
  7  8  2  0
  8  9  1  0
  9 10  1  0
 10 11  1  0
 11 12  1  0
 12 13  3  0
  9 14  1  0
 14 15  1  0
 15 16  1  0
 16 17  2  0
 16 18  1  0
 18 19  1  0
 19 20  1  0
 20 21  1  0
 20 22  1  0
 14  6  2  0
A    1
 C1 
A    2
 C2 
A    3
 O1 
A    4
 C3 
A    5
 O2 
A    6
 C4 
A    7
 C5 
A    8
 N1 
A    9
 N2 
A   10
 C6 
A   11
 C7 
A   12
 C8 
A   13
 N3 
A   14
 C9 
A   15
 N4 
A   16
 C10
A   17
 O3 
A   18
 C11
A   19
 C12
A   20
 C13
A   21
 C14
A   22
 C15
M  END
>  <similarity>  (43) 
1.0

>  <smiles>  (43) 
CCOC(=O)c1cnn(CCC#N)c1NC(=O)CCC(C)C

>  <cmpd_id>  (43) 
ENAMINE:Z1424690258

>  <used_subnode>  (43) 
c1cn[nH]c1

>  <used_synthon>  (43) 
CC(C)CCC(=O)N[Xe]

>  <ref_subnode>  (43) 
c1cn[nH]c1

>  <ref_synthon>  (43) 
N#CCC(=O)N[Xe]

>  <fragmentA>  (43) 
x0556_0A

>  <fragmentB>  (43) 
x0310_0A

>  <HA>  (43) 
22

>  <HBD>  (43) 
1

>  <HBA>  (43) 
6

>  <MW>  (43) 
306.16919056399996

>  <TPSA>  (43) 
97.00999999999999

>  <LogP>  (43) 
2.34818

>  <RBs>  (43) 
8

>  <G_bound>  (43) 
-1.2235750115656057

>  <G_unbound>  (43) 
1.7168096619582465

>  <deltaG>  (43) 
-2.940384673523852

>  <comRMSD>  (43) 
1.2418929290932992

>  <UFFGibbs>  (43) 
450.49309973151003

>  <strain_per_HA>  (43) 
20.476959078705

>  <substructure_overlap_check>  (43) 
True

>  <energy_ratio_check>  (43) 
True

>  <const_energy/unconst_energy>  (43) 
1.0092293701455817

>  <sucos>  (43) 
0.5105654236019866

>  <interactions>  (43) 
Hydrophobic_GLU-88,Hydrophobic_TYR-90,Hydrophobic_HIS-21,HBDonor_SER-87,Hydrophobic_PRO-107,Hydrophobic_VAL-124,Hydrophobic_TYR-89

>  <total_num_ints>  (43) 
7

>  <total_num_ints_nonhyd>  (43) 
1

>  <num_uniq_frag_ints>  (43) 
1

>  <num_repl_uniq_ints>  (43) 
1

>  <num_uniq_ints_lost>  (43) 
0

>  <num_new_uniq_ints>  (43) 
6

>  <int_check>  (43) 
True

>  <ref_url>  (43) 
https://pubs.acs.org/doi/10.1021/acs.jcim.3c00276?fig=tgr1&ref=pdf

>  <submitter_name>  (43) 
Steph Wills

>  <submitter_institution>  (43) 
University of Oxford

>  <submitter_email>  (43) 
stephanie.wills@balliol.ox.ac.uk

>  <generation_date>  (43) 
2023-11-23

>  <method>  (43) 
FragNetv2

>  <original SMILES>  (43) 
CCOC(=O)c1cnn(CCC#N)c1NC(=O)CCC(C)C

>  <original_name>  (43) 
x0556_0A-x0310_0A_39483_B1X

>  <ref_mols>  (43) 
x0556_0A,x0310_0A

>  <ref_pdb>  (43) 
x0310_0A

>  <rationale>  (43) 
FragNet: 1 round bioisosteric merging incl c1cn[nH]c1 and CC(C)CCC(=O)N[Xe] replacing N#CCC(=O)N[Xe]

$$$$
x0556_0A-x0310_0A_19891_B1X
     RDKit          3D

 21 22  0  0  0  0  0  0  0  0999 V2000
    3.5710   13.3850   27.3470 C   0  0  0  0  0  0  0  0  0  0  0  0
    4.6780   12.4010   26.9380 C   0  0  0  0  0  0  0  0  0  0  0  0
    4.8620   11.0890   27.6140 C   0  0  0  0  0  0  0  0  0  0  0  0
    5.8370   10.4380   27.1030 C   0  0  0  0  0  0  0  0  0  0  0  0
    6.3350   11.3200   26.0530 C   0  0  0  0  0  0  0  0  0  0  0  0
    7.3660   11.0500   25.2340 C   0  0  0  0  0  0  0  0  0  0  0  0
    8.0720   12.0170   24.5340 C   0  0  0  0  0  0  0  0  0  0  0  0
    9.0660   11.4030   23.7890 C   0  0  0  0  0  0  0  0  0  0  0  0
   10.0210   11.9430   22.9450 N   0  0  0  0  0  0  0  0  0  0  0  0
   10.6550   13.1030   23.2920 C   0  0  0  0  0  0  0  0  0  0  0  0
   10.4700   13.6930   24.3550 O   0  0  0  0  0  0  0  0  0  0  0  0
   11.6190   13.5930   22.2100 C   0  0  0  0  0  0  0  0  0  0  0  0
   12.6100   14.5970   22.7320 C   0  0  1  0  0  0  0  0  0  0  0  0
   12.0710   15.9840   22.4590 C   0  0  0  0  0  0  0  0  0  0  0  0
   12.8220   14.2510   24.2000 C   0  0  0  0  0  0  0  0  0  0  0  0
   12.0360   14.9860   25.0200 F   0  0  0  0  0  0  0  0  0  0  0  0
   14.0820   14.3260   24.6400 F   0  0  0  0  0  0  0  0  0  0  0  0
   12.4940   12.9650   24.3660 F   0  0  0  0  0  0  0  0  0  0  0  0
    8.8970   10.1010   24.0800 N   0  0  0  0  0  0  0  0  0  0  0  0
    7.8740    9.8490   24.9530 N   0  0  0  0  0  0  0  0  0  0  0  0
    5.5420   12.5080   26.0440 O   0  0  0  0  0  0  0  0  0  0  0  0
  1  2  1  0
  2  3  2  0
  3  4  1  0
  4  5  2  0
  5  6  1  0
  6  7  1  0
  7  8  2  0
  8  9  1  0
  9 10  1  0
 10 11  2  0
 10 12  1  0
 12 13  1  0
 13 14  1  1
 13 15  1  0
 15 16  1  0
 15 17  1  0
 15 18  1  0
  8 19  1  0
 19 20  1  0
  5 21  1  0
 21  2  1  0
 20  6  2  0
A    1
 C1 
A    2
 C2 
A    3
 C3 
A    4
 C4 
A    5
 C5 
A    6
 C6 
A    7
 C7 
A    8
 C8 
A    9
 N1 
A   10
 C9 
A   11
 O1 
A   12
 C10
A   13
 C11
A   14
 C12
A   15
 C13
A   16
 F1 
A   17
 F2 
A   18
 F3 
A   19
 N2 
A   20
 N3 
A   21
 O2 
M  END
>  <similarity>  (44) 
1.0

>  <smiles>  (44) 
Cc1ccc(-c2cc(NC(=O)CC(C)C(F)(F)F)[nH]n2)o1

>  <cmpd_id>  (44) 
ENAMINE:Z2715382539

>  <used_subnode>  (44) 
c1cn[nH]c1

>  <used_synthon>  (44) 
CC(CC(=O)N[Xe])C(F)(F)F

>  <ref_subnode>  (44) 
c1cn[nH]c1

>  <ref_synthon>  (44) 
N#CCC(=O)N[Xe]

>  <fragmentA>  (44) 
x0556_0A

>  <fragmentB>  (44) 
x0310_0A

>  <HA>  (44) 
21

>  <HBD>  (44) 
2

>  <HBA>  (44) 
3

>  <MW>  (44) 
301.103811348

>  <TPSA>  (44) 
70.92

>  <LogP>  (44) 
3.5051200000000016

>  <RBs>  (44) 
4

>  <G_bound>  (44) 
-3.7847296422047187

>  <G_unbound>  (44) 
0.6473694403439205

>  <deltaG>  (44) 
-4.432099082548639

>  <comRMSD>  (44) 
0.4011125543573056

>  <UFFGibbs>  (44) 
163.01038935482495

>  <strain_per_HA>  (44) 
7.762399493086902

>  <substructure_overlap_check>  (44) 
True

>  <energy_ratio_check>  (44) 
True

>  <const_energy/unconst_energy>  (44) 
1.0097423624566442

>  <sucos>  (44) 
0.5118291692398446

>  <interactions>  (44) 
HBDonor_SER-125,Hydrophobic_TYR-90,Hydrophobic_HIS-21,Hydrophobic_PRO-107,Hydrophobic_TYR-89

>  <total_num_ints>  (44) 
5

>  <total_num_ints_nonhyd>  (44) 
1

>  <num_uniq_frag_ints>  (44) 
1

>  <num_repl_uniq_ints>  (44) 
1

>  <num_uniq_ints_lost>  (44) 
0

>  <num_new_uniq_ints>  (44) 
4

>  <int_check>  (44) 
True

>  <ref_url>  (44) 
https://pubs.acs.org/doi/10.1021/acs.jcim.3c00276?fig=tgr1&ref=pdf

>  <submitter_name>  (44) 
Steph Wills

>  <submitter_institution>  (44) 
University of Oxford

>  <submitter_email>  (44) 
stephanie.wills@balliol.ox.ac.uk

>  <generation_date>  (44) 
2023-11-23

>  <method>  (44) 
FragNetv2

>  <original SMILES>  (44) 
Cc1ccc(-c2cc(NC(=O)CC(C)C(F)(F)F)[nH]n2)o1

>  <original_name>  (44) 
x0556_0A-x0310_0A_19891_B1X

>  <ref_mols>  (44) 
x0556_0A,x0310_0A

>  <ref_pdb>  (44) 
x0310_0A

>  <rationale>  (44) 
FragNet: 1 round bioisosteric merging incl c1cn[nH]c1 and CC(CC(=O)N[Xe])C(F)(F)F replacing N#CCC(=O)N[Xe]

$$$$
x0556_0A-x0310_0A_50390_B1X
     RDKit          3D

 15 15  0  0  0  0  0  0  0  0999 V2000
    9.8810    9.3080   22.9880 C   0  0  0  0  0  0  0  0  0  0  0  0
    9.0920   10.1700   23.7330 N   0  0  0  0  0  0  0  0  0  0  0  0
    8.1710    9.6830   24.6290 N   0  0  0  0  0  0  0  0  0  0  0  0
    7.6170   10.7930   25.1340 C   0  0  0  0  0  0  0  0  0  0  0  0
    8.1380   11.9030   24.6130 C   0  0  0  0  0  0  0  0  0  0  0  0
    9.0980   11.5250   23.7020 C   0  0  0  0  0  0  0  0  0  0  0  0
    9.9040   12.2980   22.9210 N   0  0  0  0  0  0  0  0  0  0  0  0
   10.7280   13.3280   23.4800 C   0  0  0  0  0  0  0  0  0  0  0  0
   10.8740   13.5500   24.6720 O   0  0  0  0  0  0  0  0  0  0  0  0
   11.4180   14.1510   22.3950 C   0  0  0  0  0  0  0  0  0  0  0  0
   10.5230   14.6830   21.5080 F   0  0  0  0  0  0  0  0  0  0  0  0
   12.2990   13.4330   21.6610 F   0  0  0  0  0  0  0  0  0  0  0  0
   12.1300   15.2360   23.1410 C   0  0  0  0  0  0  0  0  0  0  0  0
   12.0090   16.3850   22.4320 F   0  0  0  0  0  0  0  0  0  0  0  0
   13.4400   14.9470   23.1380 F   0  0  0  0  0  0  0  0  0  0  0  0
  1  2  1  0
  2  3  1  0
  3  4  2  0
  4  5  1  0
  5  6  2  0
  6  7  1  0
  7  8  1  0
  8  9  2  0
  8 10  1  0
 10 11  1  0
 10 12  1  0
 10 13  1  0
 13 14  1  0
 13 15  1  0
  6  2  1  0
A    1
 C1 
A    2
 N1 
A    3
 N2 
A    4
 C2 
A    5
 C3 
A    6
 C4 
A    7
 N3 
A    8
 C5 
A    9
 O1 
A   10
 C6 
A   11
 F1 
A   12
 F2 
A   13
 C7 
A   14
 F3 
A   15
 F4 
M  END
>  <similarity>  (45) 
1.0

>  <smiles>  (45) 
Cn1nccc1NC(=O)C(F)(F)C(F)F

>  <cmpd_id>  (45) 
ENAMINE:Z1343950744

>  <used_subnode>  (45) 
c1cn[nH]c1

>  <used_synthon>  (45) 
O=C(N[Xe])C(F)(F)C(F)F

>  <ref_subnode>  (45) 
c1cn[nH]c1

>  <ref_synthon>  (45) 
N#CCC(=O)N[Xe]

>  <fragmentA>  (45) 
x0556_0A

>  <fragmentB>  (45) 
x0310_0A

>  <HA>  (45) 
15

>  <HBD>  (45) 
1

>  <HBA>  (45) 
3

>  <MW>  (45) 
225.052524724

>  <TPSA>  (45) 
46.92

>  <LogP>  (45) 
1.259

>  <RBs>  (45) 
3

>  <G_bound>  (45) 
-4.325050879648819

>  <G_unbound>  (45) 
0.5121359698833902

>  <deltaG>  (45) 
-4.837186849532209

>  <comRMSD>  (45) 
0.4619584567829298

>  <UFFGibbs>  (45) 
41.03146177999358

>  <strain_per_HA>  (45) 
2.735430785332905

>  <substructure_overlap_check>  (45) 
True

>  <energy_ratio_check>  (45) 
True

>  <const_energy/unconst_energy>  (45) 
0.99999999977532

>  <sucos>  (45) 
0.5119752729332948

>  <interactions>  (45) 
HBDonor_SER-125,Hydrophobic_PRO-107

>  <total_num_ints>  (45) 
2

>  <total_num_ints_nonhyd>  (45) 
1

>  <num_uniq_frag_ints>  (45) 
1

>  <num_repl_uniq_ints>  (45) 
1

>  <num_uniq_ints_lost>  (45) 
0

>  <num_new_uniq_ints>  (45) 
1

>  <int_check>  (45) 
True

>  <ref_url>  (45) 
https://pubs.acs.org/doi/10.1021/acs.jcim.3c00276?fig=tgr1&ref=pdf

>  <submitter_name>  (45) 
Steph Wills

>  <submitter_institution>  (45) 
University of Oxford

>  <submitter_email>  (45) 
stephanie.wills@balliol.ox.ac.uk

>  <generation_date>  (45) 
2023-11-23

>  <method>  (45) 
FragNetv2

>  <original SMILES>  (45) 
Cn1nccc1NC(=O)C(F)(F)C(F)F

>  <original_name>  (45) 
x0556_0A-x0310_0A_50390_B1X

>  <ref_mols>  (45) 
x0556_0A,x0310_0A

>  <ref_pdb>  (45) 
x0310_0A

>  <rationale>  (45) 
FragNet: 1 round bioisosteric merging incl c1cn[nH]c1 and O=C(N[Xe])C(F)(F)C(F)F replacing N#CCC(=O)N[Xe]

$$$$
x0556_0A-x0310_0A_34651_B1X
     RDKit          3D

 23 24  0  0  0  0  0  0  0  0999 V2000
   15.3880   12.9700   23.7900 C   0  0  0  0  0  0  0  0  0  0  0  0
   14.3550   13.2740   24.8050 C   0  0  0  0  0  0  0  0  0  0  0  0
   13.2850   14.1800   24.6090 C   0  0  0  0  0  0  0  0  0  0  0  0
   12.8750   14.0380   23.3130 C   0  0  0  0  0  0  0  0  0  0  0  0
   11.7870   13.5540   22.7130 C   0  0  0  0  0  0  0  0  0  0  0  0
   10.6960   13.0450   23.6220 C   0  0  0  0  0  0  0  0  0  0  0  0
   10.6430   13.4660   24.7590 O   0  0  0  0  0  0  0  0  0  0  0  0
    9.8520   12.1410   23.0450 N   0  0  0  0  0  0  0  0  0  0  0  0
    8.9420   11.4830   23.8590 C   0  0  0  0  0  0  0  0  0  0  0  0
    8.7760   10.1670   24.1770 N   0  0  0  0  0  0  0  0  0  0  0  0
    7.7350   10.0260   25.0520 N   0  0  0  0  0  0  0  0  0  0  0  0
    7.1330   11.3120   25.3670 C   0  0  0  0  0  0  0  0  0  0  0  0
    5.9510   11.5210   26.3170 C   0  0  0  0  0  0  0  0  0  0  0  0
    6.2100   12.6700   27.2860 C   0  0  0  0  0  0  0  0  0  0  0  0
    5.3170   12.6050   28.5520 C   0  0  0  0  0  0  0  0  0  0  0  0
    4.6070   11.5980   28.5180 O   0  0  0  0  0  0  0  0  0  0  0  0
    5.2700   10.5620   28.4300 C   0  0  0  0  0  0  0  0  0  0  0  0
    5.5940   10.2670   27.1230 C   0  0  0  0  0  0  0  0  0  0  0  0
    7.9010   12.3390   24.5840 C   0  0  0  0  0  0  0  0  0  0  0  0
    7.7570   13.8660   24.4800 C   0  0  0  0  0  0  0  0  0  0  0  0
   13.6440   14.4820   22.0680 C   0  0  0  0  0  0  0  0  0  0  0  0
   13.6610   13.4540   21.0280 C   0  0  0  0  0  0  0  0  0  0  0  0
   14.8990   12.8140   20.7520 C   0  0  0  0  0  0  0  0  0  0  0  0
  1  2  1  0
  2  3  1  0
  3  4  1  0
  4  5  2  3
  5  6  1  0
  6  7  2  0
  6  8  1  0
  8  9  1  0
  9 10  1  0
 10 11  1  0
 11 12  2  0
 12 13  1  0
 13 14  1  0
 14 15  1  0
 15 16  1  0
 16 17  1  0
 17 18  1  0
 12 19  1  0
 19 20  1  0
  4 21  1  0
 21 22  1  0
 22 23  1  0
 19  9  2  0
 18 13  1  0
A    1
 C1 
A    2
 C2 
A    3
 C3 
A    4
 C4 
A    5
 C5 
A    6
 C6 
A    7
 O1 
A    8
 N1 
A    9
 C7 
A   10
 N2 
A   11
 N3 
A   12
 C8 
A   13
 C9 
A   14
 C10
A   15
 C11
A   16
 O2 
A   17
 C12
A   18
 C13
A   19
 C14
A   20
 C15
A   21
 C16
A   22
 C17
A   23
 C18
M  END
>  <similarity>  (46) 
1.0

>  <smiles>  (46) 
CCCC(=CC(=O)Nc1[nH]nc(C2CCOCC2)c1C)CCC

>  <cmpd_id>  (46) 
ENAMINE:Z3612955033

>  <used_subnode>  (46) 
c1cn[nH]c1

>  <used_synthon>  (46) 
CCCC(=CC(=O)N[Xe])CCC

>  <ref_subnode>  (46) 
c1cn[nH]c1

>  <ref_synthon>  (46) 
N#CCC(=O)N[Xe]

>  <fragmentA>  (46) 
x0556_0A

>  <fragmentB>  (46) 
x0310_0A

>  <HA>  (46) 
23

>  <HBD>  (46) 
2

>  <HBA>  (46) 
3

>  <MW>  (46) 
319.225977168

>  <TPSA>  (46) 
67.01

>  <LogP>  (46) 
4.077220000000003

>  <RBs>  (46) 
7

>  <G_bound>  (46) 
-8.549844569189117

>  <G_unbound>  (46) 
0.41543402732513346

>  <deltaG>  (46) 
-8.965278596514251

>  <comRMSD>  (46) 
0.5606969314883543

>  <UFFGibbs>  (46) 
453.97242868391174

>  <strain_per_HA>  (46) 
19.737931681909206

>  <substructure_overlap_check>  (46) 
True

>  <energy_ratio_check>  (46) 
True

>  <const_energy/unconst_energy>  (46) 
0.9728246630549481

>  <sucos>  (46) 
0.5119782048345141

>  <interactions>  (46) 
HBDonor_SER-125,Hydrophobic_TYR-90,Hydrophobic_HIS-21,Hydrophobic_PRO-107,Hydrophobic_ASN-19,Hydrophobic_LEU-22,Hydrophobic_CYS-110,Hydrophobic_TYR-89

>  <total_num_ints>  (46) 
8

>  <total_num_ints_nonhyd>  (46) 
1

>  <num_uniq_frag_ints>  (46) 
1

>  <num_repl_uniq_ints>  (46) 
1

>  <num_uniq_ints_lost>  (46) 
0

>  <num_new_uniq_ints>  (46) 
7

>  <int_check>  (46) 
True

>  <ref_url>  (46) 
https://pubs.acs.org/doi/10.1021/acs.jcim.3c00276?fig=tgr1&ref=pdf

>  <submitter_name>  (46) 
Steph Wills

>  <submitter_institution>  (46) 
University of Oxford

>  <submitter_email>  (46) 
stephanie.wills@balliol.ox.ac.uk

>  <generation_date>  (46) 
2023-11-23

>  <method>  (46) 
FragNetv2

>  <original SMILES>  (46) 
CCCC(=CC(=O)Nc1[nH]nc(C2CCOCC2)c1C)CCC

>  <original_name>  (46) 
x0556_0A-x0310_0A_34651_B1X

>  <ref_mols>  (46) 
x0556_0A,x0310_0A

>  <ref_pdb>  (46) 
x0310_0A

>  <rationale>  (46) 
FragNet: 1 round bioisosteric merging incl c1cn[nH]c1 and CCCC(=CC(=O)N[Xe])CCC replacing N#CCC(=O)N[Xe]

$$$$
x0556_0A-x0310_0A_48325_B1X
     RDKit          3D

 17 17  0  0  0  0  0  0  0  0999 V2000
    5.7620   10.2160   26.6710 C   0  0  0  0  0  0  0  0  0  0  0  0
    6.5970   11.3170   26.3630 O   0  0  0  0  0  0  0  0  0  0  0  0
    7.5550   11.0300   25.3420 C   0  0  0  0  0  0  0  0  0  0  0  0
    8.2860   12.1140   24.6580 C   0  0  0  0  0  0  0  0  0  0  0  0
    9.1930   11.6550   23.7040 C   0  0  0  0  0  0  0  0  0  0  0  0
    9.9650   12.5390   22.9950 N   0  0  0  0  0  0  0  0  0  0  0  0
   10.8210   13.3350   23.7090 C   0  0  0  0  0  0  0  0  0  0  0  0
   10.4010   14.0820   24.5840 O   0  0  0  0  0  0  0  0  0  0  0  0
   12.1980   13.3060   23.5080 C   0  0  0  0  0  0  0  0  0  0  0  0
   12.9790   14.4240   22.8870 C   0  0  0  0  0  0  0  0  0  0  0  0
   12.2740   15.6900   22.4460 C   0  0  0  0  0  0  0  0  0  0  0  0
   14.4800   14.2210   22.7150 C   0  0  0  0  0  0  0  0  0  0  0  0
   15.1670   13.7130   23.9810 C   0  0  0  0  0  0  0  0  0  0  0  0
   14.8350   13.1830   21.6230 C   0  0  0  0  0  0  0  0  0  0  0  0
    9.0520   10.3120   23.7590 N   0  0  0  0  0  0  0  0  0  0  0  0
    9.6680    9.2630   23.0620 C   0  0  0  0  0  0  0  0  0  0  0  0
    8.0990    9.8960   24.7070 N   0  0  0  0  0  0  0  0  0  0  0  0
  1  2  1  0
  2  3  1  0
  3  4  1  0
  4  5  2  0
  5  6  1  0
  6  7  1  0
  7  8  2  0
  7  9  1  0
  9 10  2  3
 10 11  1  0
 10 12  1  0
 12 13  1  0
 12 14  1  0
  5 15  1  0
 15 16  1  0
 15 17  1  0
 17  3  2  0
A    1
 C1 
A    2
 O1 
A    3
 C2 
A    4
 C3 
A    5
 C4 
A    6
 N1 
A    7
 C5 
A    8
 O2 
A    9
 C6 
A   10
 C7 
A   11
 C8 
A   12
 C9 
A   13
 C10
A   14
 C11
A   15
 N2 
A   16
 C12
A   17
 N3 
M  END
>  <similarity>  (47) 
1.0

>  <smiles>  (47) 
COc1cc(NC(=O)C=C(C)C(C)C)n(C)n1

>  <cmpd_id>  (47) 
ENAMINE:Z3053896397

>  <used_subnode>  (47) 
c1cn[nH]c1

>  <used_synthon>  (47) 
CC(=CC(=O)N[Xe])C(C)C

>  <ref_subnode>  (47) 
c1cn[nH]c1

>  <ref_synthon>  (47) 
N#CCC(=O)N[Xe]

>  <fragmentA>  (47) 
x0556_0A

>  <fragmentB>  (47) 
x0310_0A

>  <HA>  (47) 
17

>  <HBD>  (47) 
1

>  <HBA>  (47) 
4

>  <MW>  (47) 
237.147726848

>  <TPSA>  (47) 
56.15

>  <LogP>  (47) 
1.9694999999999998

>  <RBs>  (47) 
4

>  <G_bound>  (47) 
-12.508990844267613

>  <G_unbound>  (47) 
0.01381545939355825

>  <deltaG>  (47) 
-12.522806303661172

>  <comRMSD>  (47) 
0.703376868078284

>  <UFFGibbs>  (47) 
104.49086849341194

>  <strain_per_HA>  (47) 
6.146521676083055

>  <substructure_overlap_check>  (47) 
True

>  <energy_ratio_check>  (47) 
True

>  <const_energy/unconst_energy>  (47) 
0.9560276996641985

>  <sucos>  (47) 
0.5124793401918312

>  <interactions>  (47) 
HBDonor_SER-125,Hydrophobic_TYR-90,Hydrophobic_HIS-21,Hydrophobic_PRO-107,Hydrophobic_ASN-19,Hydrophobic_LEU-22,Hydrophobic_CYS-110,Hydrophobic_TYR-89

>  <total_num_ints>  (47) 
8

>  <total_num_ints_nonhyd>  (47) 
1

>  <num_uniq_frag_ints>  (47) 
1

>  <num_repl_uniq_ints>  (47) 
1

>  <num_uniq_ints_lost>  (47) 
0

>  <num_new_uniq_ints>  (47) 
7

>  <int_check>  (47) 
True

>  <ref_url>  (47) 
https://pubs.acs.org/doi/10.1021/acs.jcim.3c00276?fig=tgr1&ref=pdf

>  <submitter_name>  (47) 
Steph Wills

>  <submitter_institution>  (47) 
University of Oxford

>  <submitter_email>  (47) 
stephanie.wills@balliol.ox.ac.uk

>  <generation_date>  (47) 
2023-11-23

>  <method>  (47) 
FragNetv2

>  <original SMILES>  (47) 
COc1cc(NC(=O)C=C(C)C(C)C)n(C)n1

>  <original_name>  (47) 
x0556_0A-x0310_0A_48325_B1X

>  <ref_mols>  (47) 
x0556_0A,x0310_0A

>  <ref_pdb>  (47) 
x0310_0A

>  <rationale>  (47) 
FragNet: 1 round bioisosteric merging incl c1cn[nH]c1 and CC(=CC(=O)N[Xe])C(C)C replacing N#CCC(=O)N[Xe]

$$$$
x0556_0A-x0310_0A_33575_B1X
     RDKit          3D

 22 22  0  0  0  0  0  0  0  0999 V2000
    6.1740   10.4460   27.5230 C   0  0  0  0  0  0  0  0  0  0  0  0
    6.2170   10.8490   26.2440 C   0  0  0  0  0  0  0  0  0  0  0  0
    5.5960   12.2140   26.0930 C   0  0  0  0  0  0  0  0  0  0  0  0
    7.4190   10.8530   25.2730 C   0  0  0  0  0  0  0  0  0  0  0  0
    8.0740   12.1230   24.8330 C   0  0  0  0  0  0  0  0  0  0  0  0
    9.1440   11.7530   23.8830 C   0  0  0  0  0  0  0  0  0  0  0  0
    9.9490   12.6570   23.2730 N   0  0  0  0  0  0  0  0  0  0  0  0
   10.8610   13.3890   23.9720 C   0  0  0  0  0  0  0  0  0  0  0  0
   10.6620   13.9620   25.0300 O   0  0  0  0  0  0  0  0  0  0  0  0
   12.0970   13.4590   23.3490 C   0  0  0  0  0  0  0  0  0  0  0  0
   12.4530   14.8020   23.2320 C   0  0  0  0  0  0  0  0  0  0  0  0
   11.9870   15.2100   21.8200 C   0  0  0  0  0  0  0  0  0  0  0  0
   10.5590   14.7180   21.5790 C   0  0  0  0  0  0  0  0  0  0  0  0
   11.9630   16.7180   21.8200 C   0  0  0  0  0  0  0  0  0  0  0  0
   12.6560   14.8360   20.6550 N   0  0  0  0  0  4  0  0  0  0  0  0
   13.7810   15.3220   20.5910 O   0  0  0  0  0  0  0  0  0  0  0  0
   11.9370   14.6470   19.6690 O   0  0  0  0  0  1  0  0  0  0  0  0
    9.0790   10.4070   23.8080 N   0  0  0  0  0  0  0  0  0  0  0  0
    9.9650    9.6340   22.9170 C   0  0  0  0  0  0  0  0  0  0  0  0
    9.3920    8.4470   22.2840 C   0  0  0  0  0  0  0  0  0  0  0  0
   11.0420    8.7690   23.3750 C   0  0  0  0  0  0  0  0  0  0  0  0
    8.0810    9.8200   24.6270 N   0  0  0  0  0  0  0  0  0  0  0  0
  1  2  1  0
  2  3  1  0
  2  4  1  0
  4  5  1  0
  5  6  2  0
  6  7  1  0
  7  8  1  0
  8  9  2  0
  8 10  1  0
 10 11  1  0
 11 12  1  0
 12 13  1  0
 12 14  1  0
 12 15  1  0
 15 16  2  0
 15 17  1  0
  6 18  1  0
 18 19  1  0
 19 20  1  0
 19 21  1  0
 18 22  1  0
 22  4  2  0
M  CHG  2  15   1  17  -1
A    1
 C1 
A    2
 C2 
A    3
 C3 
A    4
 C4 
A    5
 C5 
A    6
 C6 
A    7
 N1 
A    8
 C7 
A    9
 O1 
A   10
 C8 
A   11
 C9 
A   12
 C10
A   13
 C11
A   14
 C12
A   15
 N2 
A   16
 O2 
A   17
 O3 
A   18
 N3 
A   19
 C13
A   20
 C14
A   21
 C15
A   22
 N4 
M  END
>  <similarity>  (48) 
1.0

>  <smiles>  (48) 
CC(C)c1cc(NC(=O)CCC(C)(C)[N+](=O)[O-])n(C(C)C)n1

>  <cmpd_id>  (48) 
ENAMINE:Z2272234726

>  <used_subnode>  (48) 
c1cn[nH]c1

>  <used_synthon>  (48) 
CC(C)(CCC(=O)N[Xe])[N+](=O)[O-]

>  <ref_subnode>  (48) 
c1cn[nH]c1

>  <ref_synthon>  (48) 
N#CCC(=O)N[Xe]

>  <fragmentA>  (48) 
x0556_0A

>  <fragmentB>  (48) 
x0310_0A

>  <HA>  (48) 
22

>  <HBD>  (48) 
1

>  <HBA>  (48) 
5

>  <MW>  (48) 
310.200490692

>  <TPSA>  (48) 
90.05999999999999

>  <LogP>  (48) 
3.3614000000000024

>  <RBs>  (48) 
7

>  <G_bound>  (48) 
-4.2554552793406595

>  <G_unbound>  (48) 
0.7259909520315156

>  <deltaG>  (48) 
-4.981446231372175

>  <comRMSD>  (48) 
0.7817777815224759

>  <UFFGibbs>  (48) 
2048.0531000739265

>  <strain_per_HA>  (48) 
93.09332273063302

>  <substructure_overlap_check>  (48) 
True

>  <energy_ratio_check>  (48) 
True

>  <const_energy/unconst_energy>  (48) 
0.993487038875567

>  <sucos>  (48) 
0.5124927171243351

>  <interactions>  (48) 
Hydrophobic_TYR-90,Hydrophobic_HIS-21,Anionic_HIS-21,CationPi_HIS-21,Hydrophobic_PRO-107,Cationic_ASP-39,Hydrophobic_CYS-110,Hydrophobic_VAL-124,Hydrophobic_TYR-89,Hydrophobic_ASP-109

>  <total_num_ints>  (48) 
10

>  <total_num_ints_nonhyd>  (48) 
3

>  <num_uniq_frag_ints>  (48) 
1

>  <num_repl_uniq_ints>  (48) 
1

>  <num_uniq_ints_lost>  (48) 
0

>  <num_new_uniq_ints>  (48) 
9

>  <int_check>  (48) 
True

>  <ref_url>  (48) 
https://pubs.acs.org/doi/10.1021/acs.jcim.3c00276?fig=tgr1&ref=pdf

>  <submitter_name>  (48) 
Steph Wills

>  <submitter_institution>  (48) 
University of Oxford

>  <submitter_email>  (48) 
stephanie.wills@balliol.ox.ac.uk

>  <generation_date>  (48) 
2023-11-23

>  <method>  (48) 
FragNetv2

>  <original SMILES>  (48) 
CC(C)c1cc(NC(=O)CCC(C)(C)[N+](=O)[O-])n(C(C)C)n1

>  <original_name>  (48) 
x0556_0A-x0310_0A_33575_B1X

>  <ref_mols>  (48) 
x0556_0A,x0310_0A

>  <ref_pdb>  (48) 
x0310_0A

>  <rationale>  (48) 
FragNet: 1 round bioisosteric merging incl c1cn[nH]c1 and CC(C)(CCC(=O)N[Xe])[N+](=O)[O-] replacing N#CCC(=O)N[Xe]

$$$$
x0556_0A-x0310_0A_26511_B1X
     RDKit          3D

 20 20  0  0  0  0  0  0  0  0999 V2000
    4.2120    8.6060   27.6140 C   0  0  0  0  0  0  0  0  0  0  0  0
    5.1930    9.7730   27.6340 C   0  0  0  0  0  0  0  0  0  0  0  0
    5.5790   10.1670   26.3060 O   0  0  0  0  0  0  0  0  0  0  0  0
    6.2950   11.3270   26.2260 C   0  0  0  0  0  0  0  0  0  0  0  0
    6.0510   12.3200   26.9030 O   0  0  0  0  0  0  0  0  0  0  0  0
    7.3140   11.2840   25.3300 C   0  0  0  0  0  0  0  0  0  0  0  0
    8.0910   12.2700   24.5660 C   0  0  0  0  0  0  0  0  0  0  0  0
    9.0820   11.5130   23.7670 C   0  0  0  0  0  0  0  0  0  0  0  0
    9.9660   12.2080   22.9510 N   0  0  0  0  0  0  0  0  0  0  0  0
   10.7480   13.2330   23.4240 C   0  0  0  0  0  0  0  0  0  0  0  0
   10.4850   13.8790   24.4370 O   0  0  0  0  0  0  0  0  0  0  0  0
   11.9810   13.4470   22.5360 C   0  0  0  0  0  0  0  0  0  0  0  0
   11.6330   14.1020   21.1900 C   0  0  0  0  0  0  0  0  0  0  0  0
   12.7290   12.1310   22.4100 C   0  0  0  0  0  0  0  0  0  0  0  0
   12.8260   14.5030   23.2160 C   0  0  0  0  0  0  0  0  0  0  0  0
   11.9500   15.6550   23.3720 C   0  0  0  0  0  0  0  0  0  0  0  0
   13.8010   14.9310   22.4290 F   0  0  0  0  0  0  0  0  0  0  0  0
   13.2940   14.1320   24.4290 F   0  0  0  0  0  0  0  0  0  0  0  0
    8.8610   10.1890   24.0670 N   0  0  0  0  0  0  0  0  0  0  0  0
    7.8070   10.0100   25.0010 N   0  0  0  0  0  0  0  0  0  0  0  0
  1  2  1  0
  2  3  1  0
  3  4  1  0
  4  5  2  0
  4  6  1  0
  6  7  1  0
  7  8  2  0
  8  9  1  0
  9 10  1  0
 10 11  2  0
 10 12  1  0
 12 13  1  0
 12 14  1  0
 12 15  1  0
 15 16  1  0
 15 17  1  0
 15 18  1  0
  8 19  1  0
 19 20  1  0
 20  6  2  0
A    1
 C1 
A    2
 C2 
A    3
 O1 
A    4
 C3 
A    5
 O2 
A    6
 C4 
A    7
 C5 
A    8
 C6 
A    9
 N1 
A   10
 C7 
A   11
 O3 
A   12
 C8 
A   13
 C9 
A   14
 C10
A   15
 C11
A   16
 C12
A   17
 F1 
A   18
 F2 
A   19
 N2 
A   20
 N3 
M  END
>  <similarity>  (49) 
1.0

>  <smiles>  (49) 
CCOC(=O)c1cc(NC(=O)C(C)(C)C(C)(F)F)[nH]n1

>  <cmpd_id>  (49) 
ENAMINE:Z2272280358

>  <used_subnode>  (49) 
c1cn[nH]c1

>  <used_synthon>  (49) 
CC(F)(F)C(C)(C)C(=O)N[Xe]

>  <ref_subnode>  (49) 
c1cn[nH]c1

>  <ref_synthon>  (49) 
N#CCC(=O)N[Xe]

>  <fragmentA>  (49) 
x0556_0A

>  <fragmentB>  (49) 
x0310_0A

>  <HA>  (49) 
20

>  <HBD>  (49) 
2

>  <HBA>  (49) 
4

>  <MW>  (49) 
289.1237978440001

>  <TPSA>  (49) 
84.08

>  <LogP>  (49) 
2.2063

>  <RBs>  (49) 
5

>  <G_bound>  (49) 
-6.087587584066077

>  <G_unbound>  (49) 
0.4582160345654474

>  <deltaG>  (49) 
-6.545803618631525

>  <comRMSD>  (49) 
0.48674563529904347

>  <UFFGibbs>  (49) 
149.1300474370086

>  <strain_per_HA>  (49) 
7.456502371850431

>  <substructure_overlap_check>  (49) 
True

>  <energy_ratio_check>  (49) 
True

>  <const_energy/unconst_energy>  (49) 
0.9812275469732715

>  <sucos>  (49) 
0.5125363391933101

>  <interactions>  (49) 
HBDonor_SER-125,Hydrophobic_TYR-90,Hydrophobic_HIS-21,Hydrophobic_PRO-107,Hydrophobic_CYS-110,Hydrophobic_TYR-89

>  <total_num_ints>  (49) 
6

>  <total_num_ints_nonhyd>  (49) 
1

>  <num_uniq_frag_ints>  (49) 
1

>  <num_repl_uniq_ints>  (49) 
1

>  <num_uniq_ints_lost>  (49) 
0

>  <num_new_uniq_ints>  (49) 
5

>  <int_check>  (49) 
True

>  <ref_url>  (49) 
https://pubs.acs.org/doi/10.1021/acs.jcim.3c00276?fig=tgr1&ref=pdf

>  <submitter_name>  (49) 
Steph Wills

>  <submitter_institution>  (49) 
University of Oxford

>  <submitter_email>  (49) 
stephanie.wills@balliol.ox.ac.uk

>  <generation_date>  (49) 
2023-11-23

>  <method>  (49) 
FragNetv2

>  <original SMILES>  (49) 
CCOC(=O)c1cc(NC(=O)C(C)(C)C(C)(F)F)[nH]n1

>  <original_name>  (49) 
x0556_0A-x0310_0A_26511_B1X

>  <ref_mols>  (49) 
x0556_0A,x0310_0A

>  <ref_pdb>  (49) 
x0310_0A

>  <rationale>  (49) 
FragNet: 1 round bioisosteric merging incl c1cn[nH]c1 and CC(F)(F)C(C)(C)C(=O)N[Xe] replacing N#CCC(=O)N[Xe]

$$$$
x0556_0A-x0310_0A_50840_B1X
     RDKit          3D

 18 18  0  0  0  0  0  0  0  0999 V2000
    6.2790   10.6080   26.2290 C   0  0  0  0  0  0  0  0  0  0  0  0
    7.3890   10.7900   25.2450 C   0  0  0  0  0  0  0  0  0  0  0  0
    7.9420   11.8430   24.7130 C   0  0  0  0  0  0  0  0  0  0  0  0
    9.0390   11.6060   23.7510 C   0  0  0  0  0  0  0  0  0  0  0  0
    9.8510   12.4180   23.0100 N   0  0  0  0  0  0  0  0  0  0  0  0
   10.6880   13.2710   23.6580 C   0  0  0  0  0  0  0  0  0  0  0  0
   10.3710   13.9490   24.6190 O   0  0  0  0  0  0  0  0  0  0  0  0
   12.1300   13.2930   23.1120 C   0  0  1  0  0  0  0  0  0  0  0  0
   12.5780   13.5920   21.6540 C   0  0  0  0  0  0  0  0  0  0  0  0
   12.9350   14.3050   23.8440 C   0  0  2  0  0  0  0  0  0  0  0  0
   13.0500   15.3750   22.8030 C   0  0  0  0  0  0  0  0  0  0  0  0
   14.3370   13.7660   24.2770 C   0  0  0  0  0  0  0  0  0  0  0  0
   15.4370   13.5470   23.4050 C   0  0  0  0  0  0  0  0  0  0  0  0
   14.2220   12.4800   24.7210 C   0  0  0  0  0  0  0  0  0  0  0  0
   14.7930   14.4640   25.5730 C   0  0  0  0  0  0  0  0  0  0  0  0
    9.1130   10.2770   23.7350 N   0  0  0  0  0  0  0  0  0  0  0  0
    9.9710    9.4470   22.9960 C   0  0  0  0  0  0  0  0  0  0  0  0
    8.1450    9.8030   24.6160 N   0  0  0  0  0  0  0  0  0  0  0  0
  1  2  1  0
  2  3  1  0
  3  4  2  0
  4  5  1  0
  5  6  1  0
  6  7  2  0
  6  8  1  0
  8  9  1  6
  8 10  1  0
 10 11  1  6
 10 12  1  0
 12 13  1  0
 12 14  1  0
 12 15  1  0
  4 16  1  0
 16 17  1  0
 16 18  1  0
 18  2  2  0
A    1
 C1 
A    2
 C2 
A    3
 C3 
A    4
 C4 
A    5
 N1 
A    6
 C5 
A    7
 O1 
A    8
 C6 
A    9
 C7 
A   10
 C8 
A   11
 C9 
A   12
 C10
A   13
 C11
A   14
 C12
A   15
 C13
A   16
 N2 
A   17
 C14
A   18
 N3 
M  END
>  <similarity>  (50) 
1.0

>  <smiles>  (50) 
Cc1cc(NC(=O)C(C)C(C)C(C)(C)C)n(C)n1

>  <cmpd_id>  (50) 
ENAMINE:Z2766509181

>  <used_subnode>  (50) 
c1cn[nH]c1

>  <used_synthon>  (50) 
CC(C(=O)N[Xe])C(C)C(C)(C)C

>  <ref_subnode>  (50) 
c1cn[nH]c1

>  <ref_synthon>  (50) 
N#CCC(=O)N[Xe]

>  <fragmentA>  (50) 
x0556_0A

>  <fragmentB>  (50) 
x0310_0A

>  <HA>  (50) 
18

>  <HBD>  (50) 
1

>  <HBA>  (50) 
3

>  <MW>  (50) 
251.19976241999998

>  <TPSA>  (50) 
46.92

>  <LogP>  (50) 
2.9853200000000015

>  <RBs>  (50) 
3

>  <G_bound>  (50) 
-12.461216625661763

>  <G_unbound>  (50) 
0.10014194353505323

>  <deltaG>  (50) 
-12.561358569196816

>  <comRMSD>  (50) 
0.7546233376841331

>  <UFFGibbs>  (50) 
910953.6785335783

>  <strain_per_HA>  (50) 
50608.537696309904

>  <substructure_overlap_check>  (50) 
True

>  <energy_ratio_check>  (50) 
True

>  <const_energy/unconst_energy>  (50) 
0.9480817188911179

>  <sucos>  (50) 
0.5127915428945375

>  <interactions>  (50) 
HBDonor_SER-125,Hydrophobic_TYR-90,Hydrophobic_HIS-21,Hydrophobic_PRO-107,Hydrophobic_LEU-22,Hydrophobic_CYS-110,Hydrophobic_TYR-89

>  <total_num_ints>  (50) 
7

>  <total_num_ints_nonhyd>  (50) 
1

>  <num_uniq_frag_ints>  (50) 
1

>  <num_repl_uniq_ints>  (50) 
1

>  <num_uniq_ints_lost>  (50) 
0

>  <num_new_uniq_ints>  (50) 
6

>  <int_check>  (50) 
True

>  <ref_url>  (50) 
https://pubs.acs.org/doi/10.1021/acs.jcim.3c00276?fig=tgr1&ref=pdf

>  <submitter_name>  (50) 
Steph Wills

>  <submitter_institution>  (50) 
University of Oxford

>  <submitter_email>  (50) 
stephanie.wills@balliol.ox.ac.uk

>  <generation_date>  (50) 
2023-11-23

>  <method>  (50) 
FragNetv2

>  <original SMILES>  (50) 
Cc1cc(NC(=O)C(C)C(C)C(C)(C)C)n(C)n1

>  <original_name>  (50) 
x0556_0A-x0310_0A_50840_B1X

>  <ref_mols>  (50) 
x0556_0A,x0310_0A

>  <ref_pdb>  (50) 
x0310_0A

>  <rationale>  (50) 
FragNet: 1 round bioisosteric merging incl c1cn[nH]c1 and CC(C(=O)N[Xe])C(C)C(C)(C)C replacing N#CCC(=O)N[Xe]

$$$$
x0556_0A-x0310_0A_754_B1X
     RDKit          3D

 20 20  0  0  0  0  0  0  0  0999 V2000
    5.8030   15.2040   23.4380 C   0  0  0  0  0  0  0  0  0  0  0  0
    7.0130   14.4280   23.4520 O   0  0  0  0  0  0  0  0  0  0  0  0
    7.3890   13.9480   24.6850 C   0  0  0  0  0  0  0  0  0  0  0  0
    7.3660   14.6230   25.7090 O   0  0  0  0  0  0  0  0  0  0  0  0
    7.8310   12.5130   24.6250 C   0  0  0  0  0  0  0  0  0  0  0  0
    7.3300   11.4590   25.3400 C   0  0  0  0  0  0  0  0  0  0  0  0
    6.3280   11.5620   26.2490 O   0  0  0  0  0  0  0  0  0  0  0  0
    5.8640   10.3240   26.7450 C   0  0  0  0  0  0  0  0  0  0  0  0
    5.6890   10.2690   28.2110 C   0  0  0  0  0  0  0  0  0  0  0  0
    5.5380    8.9090   28.5980 O   0  0  0  0  0  0  0  0  0  0  0  0
    7.9210   10.2870   25.0680 N   0  0  0  0  0  0  0  0  0  0  0  0
    8.8430   10.6200   24.1460 N   0  0  0  0  0  0  0  0  0  0  0  0
    8.8330   11.9560   23.8460 C   0  0  0  0  0  0  0  0  0  0  0  0
    9.6780   12.5710   22.9330 N   0  0  0  0  0  0  0  0  0  0  0  0
   10.7980   13.2930   23.3150 C   0  0  0  0  0  0  0  0  0  0  0  0
   11.1770   13.3800   24.4810 O   0  0  0  0  0  0  0  0  0  0  0  0
   11.5330   14.0050   22.1690 C   0  0  2  0  0  0  0  0  0  0  0  0
   12.3040   15.2110   22.7070 C   0  0  0  0  0  0  0  0  0  0  0  0
   10.3120   14.5950   20.9090 S   0  0  0  0  0  0  0  0  0  0  0  0
   11.3160   14.5760   19.3920 C   0  0  0  0  0  0  0  0  0  0  0  0
  1  2  1  0
  2  3  1  0
  3  4  2  0
  3  5  1  0
  5  6  1  0
  6  7  1  0
  7  8  1  0
  8  9  1  0
  9 10  1  0
  6 11  2  0
 11 12  1  0
 12 13  1  0
 13 14  1  0
 14 15  1  0
 15 16  2  0
 15 17  1  0
 17 18  1  1
 17 19  1  0
 19 20  1  0
 13  5  2  0
A    1
 C1 
A    2
 O1 
A    3
 C2 
A    4
 O2 
A    5
 C3 
A    6
 C4 
A    7
 O3 
A    8
 C5 
A    9
 C6 
A   10
 O4 
A   11
 N1 
A   12
 N2 
A   13
 C7 
A   14
 N3 
A   15
 C8 
A   16
 O5 
A   17
 C9 
A   18
 C10
A   19
 S1 
A   20
 C11
M  END
>  <similarity>  (51) 
1.0

>  <smiles>  (51) 
COC(=O)c1c(OCCO)n[nH]c1NC(=O)C(C)SC

>  <cmpd_id>  (51) 
ENAMINE:PV-002253279027

>  <used_subnode>  (51) 
c1cn[nH]c1

>  <used_synthon>  (51) 
CSC(C)C(=O)N[Xe]

>  <ref_subnode>  (51) 
c1cn[nH]c1

>  <ref_synthon>  (51) 
N#CCC(=O)N[Xe]

>  <fragmentA>  (51) 
x0556_0A

>  <fragmentB>  (51) 
x0310_0A

>  <HA>  (51) 
20

>  <HBD>  (51) 
3

>  <HBA>  (51) 
7

>  <MW>  (51) 
303.088891644

>  <TPSA>  (51) 
113.53999999999999

>  <LogP>  (51) 
0.2574000000000001

>  <RBs>  (51) 
7

>  <G_bound>  (51) 
-8.848852289729598

>  <G_unbound>  (51) 
1.2952520225639965

>  <deltaG>  (51) 
-10.144104312293594

>  <comRMSD>  (51) 
0.5503444431040645

>  <UFFGibbs>  (51) 
89.01382879026335

>  <strain_per_HA>  (51) 
4.450691439513167

>  <substructure_overlap_check>  (51) 
True

>  <energy_ratio_check>  (51) 
True

>  <const_energy/unconst_energy>  (51) 
1.0564353297725466

>  <sucos>  (51) 
0.51301194730777

>  <interactions>  (51) 
Hydrophobic_TYR-90,Hydrophobic_HIS-21,HBDonor_SER-105,Hydrophobic_PRO-107,Hydrophobic_ASP-39,Hydrophobic_TYR-89,Hydrophobic_THR-126

>  <total_num_ints>  (51) 
7

>  <total_num_ints_nonhyd>  (51) 
1

>  <num_uniq_frag_ints>  (51) 
1

>  <num_repl_uniq_ints>  (51) 
1

>  <num_uniq_ints_lost>  (51) 
0

>  <num_new_uniq_ints>  (51) 
6

>  <int_check>  (51) 
True

>  <ref_url>  (51) 
https://pubs.acs.org/doi/10.1021/acs.jcim.3c00276?fig=tgr1&ref=pdf

>  <submitter_name>  (51) 
Steph Wills

>  <submitter_institution>  (51) 
University of Oxford

>  <submitter_email>  (51) 
stephanie.wills@balliol.ox.ac.uk

>  <generation_date>  (51) 
2023-11-23

>  <method>  (51) 
FragNetv2

>  <original SMILES>  (51) 
COC(=O)c1c(OCCO)n[nH]c1NC(=O)C(C)SC

>  <original_name>  (51) 
x0556_0A-x0310_0A_754_B1X

>  <ref_mols>  (51) 
x0556_0A,x0310_0A

>  <ref_pdb>  (51) 
x0310_0A

>  <rationale>  (51) 
FragNet: 1 round bioisosteric merging incl c1cn[nH]c1 and CSC(C)C(=O)N[Xe] replacing N#CCC(=O)N[Xe]

$$$$
x0556_0A-x0310_0A_11530_B1X
     RDKit          3D

 15 15  0  0  0  0  0  0  0  0999 V2000
    6.6830   12.7290   27.1090 C   0  0  0  0  0  0  0  0  0  0  0  0
    5.7430   11.6780   26.5340 C   0  0  0  0  0  0  0  0  0  0  0  0
    4.8280   11.2050   27.4960 C   0  0  0  0  0  0  0  0  0  0  0  0
    6.4110   10.5480   26.1500 C   0  0  0  0  0  0  0  0  0  0  0  0
    7.4320   10.7270   25.2230 N   0  0  0  0  0  0  0  0  0  0  0  0
    7.8250   12.0220   24.6920 C   0  0  0  0  0  0  0  0  0  0  0  0
    8.9800   11.7580   23.7130 C   0  0  0  0  0  0  0  0  0  0  0  0
    9.6910   12.6520   22.9640 N   0  0  0  0  0  0  0  0  0  0  0  0
   10.4300   13.6270   23.5980 C   0  0  0  0  0  0  0  0  0  0  0  0
   10.4070   13.8590   24.7930 O   0  0  0  0  0  0  0  0  0  0  0  0
   11.2850   14.3970   22.6910 C   0  0  0  0  0  0  0  0  0  0  0  0
   12.1930   13.4350   22.0440 C   0  0  0  0  0  0  0  0  0  0  0  0
   12.1530   15.4280   23.3920 C   0  0  0  0  0  0  0  0  0  0  0  0
    9.0920   10.3710   23.8080 C   0  0  0  0  0  0  0  0  0  0  0  0
    8.1670    9.7300   24.7130 N   0  0  0  0  0  0  0  0  0  0  0  0
  1  2  1  0
  2  3  1  0
  2  4  1  0
  4  5  1  0
  5  6  1  0
  6  7  2  0
  7  8  1  0
  8  9  1  0
  9 10  2  0
  9 11  1  0
 11 12  1  0
 11 13  1  0
  7 14  1  0
 14 15  2  0
 15  5  1  0
A    1
 C1 
A    2
 C2 
A    3
 C3 
A    4
 C4 
A    5
 N1 
A    6
 C5 
A    7
 C6 
A    8
 N2 
A    9
 C7 
A   10
 O1 
A   11
 C8 
A   12
 C9 
A   13
 C10
A   14
 C11
A   15
 N3 
M  END
>  <similarity>  (52) 
1.0

>  <smiles>  (52) 
CC(C)Cn1cc(NC(=O)C(C)C)cn1

>  <cmpd_id>  (52) 
ENAMINE:Z1275534572

>  <used_subnode>  (52) 
c1cn[nH]c1

>  <used_synthon>  (52) 
CC(C)C(=O)N[Xe]

>  <ref_subnode>  (52) 
c1cn[nH]c1

>  <ref_synthon>  (52) 
N#CCC(=O)N[Xe]

>  <fragmentA>  (52) 
x0556_0A

>  <fragmentB>  (52) 
x0310_0A

>  <HA>  (52) 
15

>  <HBD>  (52) 
1

>  <HBA>  (52) 
3

>  <MW>  (52) 
209.152812228

>  <TPSA>  (52) 
46.92

>  <LogP>  (52) 
2.1336000000000004

>  <RBs>  (52) 
4

>  <G_bound>  (52) 
-7.843709547217477

>  <G_unbound>  (52) 
-0.23486889036692943

>  <deltaG>  (52) 
-7.608840656850548

>  <comRMSD>  (52) 
1.099561877634376

>  <UFFGibbs>  (52) 
198.74358106030238

>  <strain_per_HA>  (52) 
13.249572070686826

>  <substructure_overlap_check>  (52) 
True

>  <energy_ratio_check>  (52) 
True

>  <const_energy/unconst_energy>  (52) 
0.9982551894448862

>  <sucos>  (52) 
0.5132107371723219

>  <interactions>  (52) 
HBDonor_SER-125,Hydrophobic_HIS-21,Hydrophobic_PRO-107,Hydrophobic_TYR-89

>  <total_num_ints>  (52) 
4

>  <total_num_ints_nonhyd>  (52) 
1

>  <num_uniq_frag_ints>  (52) 
1

>  <num_repl_uniq_ints>  (52) 
1

>  <num_uniq_ints_lost>  (52) 
0

>  <num_new_uniq_ints>  (52) 
3

>  <int_check>  (52) 
True

>  <ref_url>  (52) 
https://pubs.acs.org/doi/10.1021/acs.jcim.3c00276?fig=tgr1&ref=pdf

>  <submitter_name>  (52) 
Steph Wills

>  <submitter_institution>  (52) 
University of Oxford

>  <submitter_email>  (52) 
stephanie.wills@balliol.ox.ac.uk

>  <generation_date>  (52) 
2023-11-23

>  <method>  (52) 
FragNetv2

>  <original SMILES>  (52) 
CC(C)Cn1cc(NC(=O)C(C)C)cn1

>  <original_name>  (52) 
x0556_0A-x0310_0A_11530_B1X

>  <ref_mols>  (52) 
x0556_0A,x0310_0A

>  <ref_pdb>  (52) 
x0310_0A

>  <rationale>  (52) 
FragNet: 1 round bioisosteric merging incl c1cn[nH]c1 and CC(C)C(=O)N[Xe] replacing N#CCC(=O)N[Xe]

$$$$
x0556_0A-x0310_0A_46311_B1X
     RDKit          3D

 18 18  0  0  0  0  0  0  0  0999 V2000
    4.9870    9.1630   28.9310 C   0  0  0  0  0  0  0  0  0  0  0  0
    4.7460   10.1940   27.8410 C   0  0  0  0  0  0  0  0  0  0  0  0
    3.6530   11.2340   28.1780 C   0  0  0  0  0  0  0  0  0  0  0  0
    6.0530   10.8710   27.4740 C   0  0  0  0  0  0  0  0  0  0  0  0
    6.2020   11.6630   26.1770 C   0  0  0  0  0  0  0  0  0  0  0  0
    7.3730   11.2320   25.2630 C   0  0  0  0  0  0  0  0  0  0  0  0
    8.1550   12.2050   24.6520 C   0  0  0  0  0  0  0  0  0  0  0  0
    9.2030   11.5280   23.8460 C   0  0  0  0  0  0  0  0  0  0  0  0
   10.1510   12.2720   23.1350 N   0  0  0  0  0  0  0  0  0  0  0  0
   10.6250   13.4070   23.7510 C   0  0  0  0  0  0  0  0  0  0  0  0
   10.0580   13.9570   24.6770 O   0  0  0  0  0  0  0  0  0  0  0  0
   11.9530   13.9380   23.2300 C   0  0  0  0  0  0  0  0  0  0  0  0
   12.0770   13.7150   21.7500 C   0  0  0  0  0  0  0  0  0  0  0  0
   13.1130   13.6350   24.2170 C   0  0  0  0  0  0  0  0  0  0  0  0
   11.9790   15.4030   22.7960 C   0  0  0  0  0  0  0  0  0  0  0  0
   12.0240   16.4670   22.3750 N   0  0  0  0  0  0  0  0  0  0  0  0
    8.9340   10.1250   24.0530 N   0  0  0  0  0  0  0  0  0  0  0  0
    7.8410    9.9420   24.9020 N   0  0  0  0  0  0  0  0  0  0  0  0
  1  2  1  0
  2  3  1  0
  2  4  1  0
  4  5  1  0
  5  6  1  0
  6  7  1  0
  7  8  2  0
  8  9  1  0
  9 10  1  0
 10 11  2  0
 10 12  1  0
 12 13  1  0
 12 14  1  0
 12 15  1  0
 15 16  3  0
  8 17  1  0
 17 18  1  0
 18  6  2  0
A    1
 C1 
A    2
 C2 
A    3
 C3 
A    4
 C4 
A    5
 C5 
A    6
 C6 
A    7
 C7 
A    8
 C8 
A    9
 N1 
A   10
 C9 
A   11
 O1 
A   12
 C10
A   13
 C11
A   14
 C12
A   15
 C13
A   16
 N2 
A   17
 N3 
A   18
 N4 
M  END
>  <similarity>  (53) 
1.0

>  <smiles>  (53) 
CC(C)CCc1cc(NC(=O)C(C)(C)C#N)[nH]n1

>  <cmpd_id>  (53) 
ENAMINE:Z1822239900

>  <used_subnode>  (53) 
c1cn[nH]c1

>  <used_synthon>  (53) 
CC(C)(C#N)C(=O)N[Xe]

>  <ref_subnode>  (53) 
c1cn[nH]c1

>  <ref_synthon>  (53) 
N#CCC(=O)N[Xe]

>  <fragmentA>  (53) 
x0556_0A

>  <fragmentB>  (53) 
x0310_0A

>  <HA>  (53) 
18

>  <HBD>  (53) 
2

>  <HBA>  (53) 
3

>  <MW>  (53) 
248.16371125999999

>  <TPSA>  (53) 
81.57000000000001

>  <LogP>  (53) 
2.48658

>  <RBs>  (53) 
5

>  <G_bound>  (53) 
-7.767966151291454

>  <G_unbound>  (53) 
0.025209806316864317

>  <deltaG>  (53) 
-7.793175957608319

>  <comRMSD>  (53) 
0.5461165388454672

>  <UFFGibbs>  (53) 
178.68198320826914

>  <strain_per_HA>  (53) 
9.926776844903841

>  <substructure_overlap_check>  (53) 
True

>  <energy_ratio_check>  (53) 
True

>  <const_energy/unconst_energy>  (53) 
0.9626361641949148

>  <sucos>  (53) 
0.5132334670215315

>  <interactions>  (53) 
HBDonor_SER-125,Hydrophobic_HIS-21,Hydrophobic_PRO-107,Hydrophobic_GLU-106,Hydrophobic_TYR-89

>  <total_num_ints>  (53) 
5

>  <total_num_ints_nonhyd>  (53) 
1

>  <num_uniq_frag_ints>  (53) 
1

>  <num_repl_uniq_ints>  (53) 
1

>  <num_uniq_ints_lost>  (53) 
0

>  <num_new_uniq_ints>  (53) 
4

>  <int_check>  (53) 
True

>  <ref_url>  (53) 
https://pubs.acs.org/doi/10.1021/acs.jcim.3c00276?fig=tgr1&ref=pdf

>  <submitter_name>  (53) 
Steph Wills

>  <submitter_institution>  (53) 
University of Oxford

>  <submitter_email>  (53) 
stephanie.wills@balliol.ox.ac.uk

>  <generation_date>  (53) 
2023-11-23

>  <method>  (53) 
FragNetv2

>  <original SMILES>  (53) 
CC(C)CCc1cc(NC(=O)C(C)(C)C#N)[nH]n1

>  <original_name>  (53) 
x0556_0A-x0310_0A_46311_B1X

>  <ref_mols>  (53) 
x0556_0A,x0310_0A

>  <ref_pdb>  (53) 
x0310_0A

>  <rationale>  (53) 
FragNet: 1 round bioisosteric merging incl c1cn[nH]c1 and CC(C)(C#N)C(=O)N[Xe] replacing N#CCC(=O)N[Xe]

$$$$
x0556_0A-x0310_0A_48331_B1X
     RDKit          3D

 16 17  0  0  0  0  0  0  0  0999 V2000
    5.7420   10.2030   26.7090 C   0  0  0  0  0  0  0  0  0  0  0  0
    6.5260   11.3330   26.3490 O   0  0  0  0  0  0  0  0  0  0  0  0
    7.4700   11.1130   25.3810 C   0  0  0  0  0  0  0  0  0  0  0  0
    8.0990   12.2550   24.6690 C   0  0  0  0  0  0  0  0  0  0  0  0
    9.1010   11.7230   23.6830 C   0  0  0  0  0  0  0  0  0  0  0  0
    9.8920   12.4880   22.8480 N   0  0  0  0  0  0  0  0  0  0  0  0
   10.7120   13.4780   23.3370 C   0  0  0  0  0  0  0  0  0  0  0  0
   10.9800   13.6490   24.5200 O   0  0  0  0  0  0  0  0  0  0  0  0
   11.2950   14.4150   22.2740 C   0  0  0  0  0  0  0  0  0  0  0  0
   12.7400   14.8720   22.3310 C   0  0  0  0  0  0  0  0  0  0  0  0
   10.3970   14.9340   21.1200 C   0  0  0  0  0  0  0  0  0  0  0  0
    9.0940   14.8110   20.6970 C   0  0  0  0  0  0  0  0  0  0  0  0
    9.9800   15.7310   19.7960 C   0  0  0  0  0  0  0  0  0  0  0  0
    9.0210   10.3830   23.8370 N   0  0  0  0  0  0  0  0  0  0  0  0
    9.8140    9.5350   23.0790 C   0  0  0  0  0  0  0  0  0  0  0  0
    8.0850   10.0080   24.8080 N   0  0  0  0  0  0  0  0  0  0  0  0
  1  2  1  0
  2  3  1  0
  3  4  1  0
  4  5  2  0
  5  6  1  0
  6  7  1  0
  7  8  2  0
  7  9  1  0
  9 10  1  0
  9 11  2  3
 11 12  1  0
 12 13  1  0
  5 14  1  0
 14 15  1  0
 14 16  1  0
 16  3  2  0
 13 11  1  0
A    1
 C1 
A    2
 O1 
A    3
 C2 
A    4
 C3 
A    5
 C4 
A    6
 N1 
A    7
 C5 
A    8
 O2 
A    9
 C6 
A   10
 C7 
A   11
 C8 
A   12
 C9 
A   13
 C10
A   14
 N2 
A   15
 C11
A   16
 N3 
M  END
>  <similarity>  (54) 
1.0

>  <smiles>  (54) 
COc1cc(NC(=O)C(C)=C2CC2)n(C)n1

>  <cmpd_id>  (54) 
ENAMINE:Z3086667301

>  <used_subnode>  (54) 
c1cn[nH]c1

>  <used_synthon>  (54) 
CC(C(=O)N[Xe])=C1CC1

>  <ref_subnode>  (54) 
c1cn[nH]c1

>  <ref_synthon>  (54) 
N#CCC(=O)N[Xe]

>  <fragmentA>  (54) 
x0556_0A

>  <fragmentB>  (54) 
x0310_0A

>  <HA>  (54) 
16

>  <HBD>  (54) 
1

>  <HBA>  (54) 
4

>  <MW>  (54) 
221.11642672

>  <TPSA>  (54) 
56.15

>  <LogP>  (54) 
1.4774999999999998

>  <RBs>  (54) 
3

>  <G_bound>  (54) 
-10.422658428666256

>  <G_unbound>  (54) 
-0.07885276808168669

>  <deltaG>  (54) 
-10.34380566058457

>  <comRMSD>  (54) 
0.9209209363292071

>  <UFFGibbs>  (54) 
128.94637855694427

>  <strain_per_HA>  (54) 
8.059148659809017

>  <substructure_overlap_check>  (54) 
True

>  <energy_ratio_check>  (54) 
True

>  <const_energy/unconst_energy>  (54) 
0.9884929534333885

>  <sucos>  (54) 
0.5139642907235012

>  <interactions>  (54) 
Hydrophobic_VAL-84,HBDonor_SER-125,Hydrophobic_TYR-90,Hydrophobic_HIS-21,Hydrophobic_PRO-107,Hydrophobic_TYR-89,Hydrophobic_THR-126

>  <total_num_ints>  (54) 
7

>  <total_num_ints_nonhyd>  (54) 
1

>  <num_uniq_frag_ints>  (54) 
1

>  <num_repl_uniq_ints>  (54) 
1

>  <num_uniq_ints_lost>  (54) 
0

>  <num_new_uniq_ints>  (54) 
6

>  <int_check>  (54) 
True

>  <ref_url>  (54) 
https://pubs.acs.org/doi/10.1021/acs.jcim.3c00276?fig=tgr1&ref=pdf

>  <submitter_name>  (54) 
Steph Wills

>  <submitter_institution>  (54) 
University of Oxford

>  <submitter_email>  (54) 
stephanie.wills@balliol.ox.ac.uk

>  <generation_date>  (54) 
2023-11-23

>  <method>  (54) 
FragNetv2

>  <original SMILES>  (54) 
COc1cc(NC(=O)C(C)=C2CC2)n(C)n1

>  <original_name>  (54) 
x0556_0A-x0310_0A_48331_B1X

>  <ref_mols>  (54) 
x0556_0A,x0310_0A

>  <ref_pdb>  (54) 
x0310_0A

>  <rationale>  (54) 
FragNet: 1 round bioisosteric merging incl c1cn[nH]c1 and CC(C(=O)N[Xe])=C1CC1 replacing N#CCC(=O)N[Xe]

$$$$
x0556_0A-x0310_0A_49948_B1X
     RDKit          3D

 22 23  0  0  0  0  0  0  0  0999 V2000
   11.0430    8.7230   23.3810 C   0  0  0  0  0  0  0  0  0  0  0  0
    9.9820    9.5810   22.8880 C   0  0  0  0  0  0  0  0  0  0  0  0
    9.3930    8.4270   22.2840 C   0  0  0  0  0  0  0  0  0  0  0  0
    9.0770   10.3760   23.7260 N   0  0  0  0  0  0  0  0  0  0  0  0
    8.1010    9.9620   24.6560 N   0  0  0  0  0  0  0  0  0  0  0  0
    7.4830   11.1080   25.1510 C   0  0  0  0  0  0  0  0  0  0  0  0
    6.3150   11.2630   26.1700 C   0  0  0  0  0  0  0  0  0  0  0  0
    5.8550   10.2240   27.2040 C   0  0  0  0  0  0  0  0  0  0  0  0
    4.7000   10.4770   28.1530 C   0  0  0  0  0  0  0  0  0  0  0  0
    3.9330   11.7830   28.1280 C   0  0  0  0  0  0  0  0  0  0  0  0
    4.2880   12.7740   27.2170 C   0  0  0  0  0  0  0  0  0  0  0  0
    5.4530   12.5700   26.2310 C   0  0  0  0  0  0  0  0  0  0  0  0
    8.0840   12.2180   24.5490 C   0  0  0  0  0  0  0  0  0  0  0  0
    9.1260   11.6910   23.6180 C   0  0  0  0  0  0  0  0  0  0  0  0
    9.9810   12.4690   22.7880 N   0  0  0  0  0  0  0  0  0  0  0  0
   10.7400   13.5620   23.2010 C   0  0  0  0  0  0  0  0  0  0  0  0
   10.9030   13.8240   24.3860 O   0  0  0  0  0  0  0  0  0  0  0  0
   11.3480   14.4450   22.0880 C   0  0  0  0  0  0  0  0  0  0  0  0
   12.6020   14.2000   22.5180 C   0  0  0  0  0  0  0  0  0  0  0  0
   12.7490   14.9380   23.6790 C   0  0  0  0  0  0  0  0  0  0  0  0
   13.5320   14.2900   24.5940 C   0  0  0  0  0  0  0  0  0  0  0  0
   14.2410   13.7560   25.3460 N   0  0  0  0  0  0  0  0  0  0  0  0
  1  2  1  0
  2  3  1  0
  2  4  1  0
  4  5  1  0
  5  6  2  0
  6  7  1  0
  7  8  2  0
  8  9  1  0
  9 10  2  0
 10 11  1  0
 11 12  2  0
  6 13  1  0
 13 14  2  0
 14 15  1  0
 15 16  1  0
 16 17  2  0
 16 18  1  0
 18 19  1  0
 19 20  1  0
 20 21  1  0
 21 22  3  0
 14  4  1  0
 12  7  1  0
A    1
 C1 
A    2
 C2 
A    3
 C3 
A    4
 N1 
A    5
 N2 
A    6
 C4 
A    7
 C5 
A    8
 C6 
A    9
 C7 
A   10
 C8 
A   11
 C9 
A   12
 C10
A   13
 C11
A   14
 C12
A   15
 N3 
A   16
 C13
A   17
 O1 
A   18
 C14
A   19
 C15
A   20
 C16
A   21
 C17
A   22
 N4 
M  END
>  <similarity>  (55) 
1.0

>  <smiles>  (55) 
CC(C)n1nc(-c2ccccc2)cc1NC(=O)CCCC#N

>  <cmpd_id>  (55) 
ENAMINE:Z2190509401

>  <used_subnode>  (55) 
c1cn[nH]c1

>  <used_synthon>  (55) 
N#CCCCC(=O)N[Xe]

>  <ref_subnode>  (55) 
c1cn[nH]c1

>  <ref_synthon>  (55) 
N#CCC(=O)N[Xe]

>  <fragmentA>  (55) 
x0556_0A

>  <fragmentB>  (55) 
x0310_0A

>  <HA>  (55) 
22

>  <HBD>  (55) 
1

>  <HBA>  (55) 
4

>  <MW>  (55) 
296.16371126

>  <TPSA>  (55) 
70.71000000000001

>  <LogP>  (55) 
3.7633800000000024

>  <RBs>  (55) 
6

>  <G_bound>  (55) 
-4.896055756087565

>  <G_unbound>  (55) 
0.05559414393426586

>  <deltaG>  (55) 
-4.95164990002183

>  <comRMSD>  (55) 
0.7432225511202882

>  <UFFGibbs>  (55) 
1875.4168726999487

>  <strain_per_HA>  (55) 
85.2462214863613

>  <substructure_overlap_check>  (55) 
True

>  <energy_ratio_check>  (55) 
True

>  <const_energy/unconst_energy>  (55) 
1.020161772959879

>  <sucos>  (55) 
0.5146702806316098

>  <interactions>  (55) 
HBDonor_SER-125,Hydrophobic_HIS-21,Hydrophobic_PRO-107,Hydrophobic_CYS-110,Hydrophobic_VAL-124,Hydrophobic_TYR-89,Hydrophobic_ASP-109

>  <total_num_ints>  (55) 
7

>  <total_num_ints_nonhyd>  (55) 
1

>  <num_uniq_frag_ints>  (55) 
1

>  <num_repl_uniq_ints>  (55) 
1

>  <num_uniq_ints_lost>  (55) 
0

>  <num_new_uniq_ints>  (55) 
6

>  <int_check>  (55) 
True

>  <ref_url>  (55) 
https://pubs.acs.org/doi/10.1021/acs.jcim.3c00276?fig=tgr1&ref=pdf

>  <submitter_name>  (55) 
Steph Wills

>  <submitter_institution>  (55) 
University of Oxford

>  <submitter_email>  (55) 
stephanie.wills@balliol.ox.ac.uk

>  <generation_date>  (55) 
2023-11-23

>  <method>  (55) 
FragNetv2

>  <original SMILES>  (55) 
CC(C)n1nc(-c2ccccc2)cc1NC(=O)CCCC#N

>  <original_name>  (55) 
x0556_0A-x0310_0A_49948_B1X

>  <ref_mols>  (55) 
x0556_0A,x0310_0A

>  <ref_pdb>  (55) 
x0310_0A

>  <rationale>  (55) 
FragNet: 1 round bioisosteric merging incl c1cn[nH]c1 and N#CCCCC(=O)N[Xe] replacing N#CCC(=O)N[Xe]

$$$$
x0310_0A-x0556_0A_232_B1X_rgrp-0
     RDKit          3D

 19 20  0  0  0  0  0  0  0  0999 V2000
    6.3390   12.2070   26.0820 C   0  0  0  0  0  0  0  0  0  0  0  0
    7.3840   11.5580   25.2400 C   0  0  0  0  0  0  0  0  0  0  0  0
    7.4550   10.1870   25.1410 C   0  0  0  0  0  0  0  0  0  0  0  0
    8.3720    9.5210   24.3920 N   0  0  0  0  0  0  0  0  0  0  0  0
    9.2590   10.2710   23.7190 C   0  0  0  0  0  0  0  0  0  0  0  0
    9.2810   11.6580   23.7510 C   0  0  0  0  0  0  0  0  0  0  0  0
   10.2530   12.3600   23.0330 N   0  0  0  0  0  0  0  0  0  0  0  0
   11.1020   13.2580   23.6590 C   0  0  0  0  0  0  0  0  0  0  0  0
   10.9930   13.5830   24.8350 O   0  0  0  0  0  0  0  0  0  0  0  0
   12.1550   13.8680   22.7590 C   0  0  1  0  0  0  0  0  0  0  0  0
   12.1890   15.2730   22.9320 C   0  0  0  0  0  0  0  0  0  0  0  0
   12.1310   16.3850   23.0630 N   0  0  0  0  0  0  0  0  0  0  0  0
   13.5380   13.4510   23.0150 C   0  0  0  0  0  0  0  0  0  0  0  0
   14.3880   13.3060   21.9500 C   0  0  0  0  0  0  0  0  0  0  0  0
   15.6360   12.9210   22.2580 C   0  0  0  0  0  0  0  0  0  0  0  0
   16.0320   12.6970   23.5200 N   0  0  0  0  0  0  0  0  0  0  0  0
   15.1460   12.8660   24.4900 C   0  0  0  0  0  0  0  0  0  0  0  0
   13.8840   13.2440   24.3070 N   0  0  0  0  0  0  0  0  0  0  0  0
    8.3200   12.3000   24.5280 C   0  0  0  0  0  0  0  0  0  0  0  0
  1  2  1  0
  2  3  2  0
  3  4  1  0
  4  5  2  0
  5  6  1  0
  6  7  1  0
  7  8  1  0
  8  9  2  0
  8 10  1  0
 10 11  1  1
 11 12  3  0
 10 13  1  0
 13 14  2  0
 14 15  1  0
 15 16  2  0
 16 17  1  0
 17 18  2  0
  6 19  2  0
 19  2  1  0
 18 13  1  0
A    1
 C1 
A    2
 C2 
A    3
 C3 
A    4
 N1 
A    5
 C4 
A    6
 C5 
A    7
 N2 
A    8
 C6 
A    9
 O1 
A   10
 C7 
A   11
 C8 
A   12
 N3 
A   13
 C9 
A   14
 C10
A   15
 C11
A   16
 N4 
A   17
 C12
A   18
 N5 
A   19
 C13
M  END
>  <similarity>  (56) 
1.0

>  <smiles>  (56) 
Cc1cncc(NC(=O)C(C#N)c2ccncn2)c1

>  <cmpd_id>  (56) 
ENAMINE:Z1837820127

>  <used_subnode>  (56) 
N#CCC(N)=O

>  <used_synthon>  (56) 
[Xe]c1cccnc1

>  <ref_subnode>  (56) 
N#CCC(N)=O

>  <ref_synthon>  (56) 
[Xe]n1cccn1

>  <fragmentA>  (56) 
x0310_0A

>  <fragmentB>  (56) 
x0556_0A

>  <HA>  (56) 
19

>  <HBD>  (56) 
1

>  <HBA>  (56) 
5

>  <MW>  (56) 
253.096359972

>  <TPSA>  (56) 
91.56

>  <LogP>  (56) 
1.4258999999999997

>  <RBs>  (56) 
3

>  <G_bound>  (56) 
-5.152469341151404

>  <G_unbound>  (56) 
0.9531453105196772

>  <deltaG>  (56) 
-6.105614651671081

>  <comRMSD>  (56) 
0.17990895844662133

>  <substructure_overlap_check>  (56) 
True

>  <energy_ratio_check>  (56) 
True

>  <const_energy/unconst_energy>  (56) 
1.8638230394161979

>  <sucos>  (56) 
0.5153125815020706

>  <interactions>  (56) 
Hydrophobic_ASN-19,Hydrophobic_CYS-110,Hydrophobic_HIS-21,Hydrophobic_PRO-107,Hydrophobic_LEU-22,Hydrophobic_TYR-90,HBDonor_SER-125,HBAcceptor_SER-105,Hydrophobic_TYR-89,PiStacking_TYR-89

>  <total_num_ints>  (56) 
10

>  <total_num_ints_nonhyd>  (56) 
3

>  <num_uniq_frag_ints>  (56) 
1

>  <num_repl_uniq_ints>  (56) 
1

>  <num_uniq_ints_lost>  (56) 
0

>  <num_new_uniq_ints>  (56) 
9

>  <int_check>  (56) 
True

>  <ref_url>  (56) 
https://pubs.acs.org/doi/10.1021/acs.jcim.3c00276?fig=tgr1&ref=pdf

>  <submitter_name>  (56) 
Steph Wills

>  <submitter_institution>  (56) 
University of Oxford

>  <submitter_email>  (56) 
stephanie.wills@balliol.ox.ac.uk

>  <generation_date>  (56) 
2023-11-23

>  <method>  (56) 
FragNetv2

>  <original SMILES>  (56) 
Cc1cncc(NC(=O)C(C#N)c2ccncn2)c1

>  <original_name>  (56) 
x0310_0A-x0556_0A_232_B1X_rgrp-0

>  <ref_mols>  (56) 
x0310_0A,x0556_0A

>  <ref_pdb>  (56) 
x0310_0A

>  <rationale>  (56) 
FragNet: 1 round bioisosteric merging incl N#CCC(N)=O and [Xe]c1cccnc1 replacing [Xe]n1cccn1

$$$$
x0556_0A-x0310_0A_26569-0_B2S_rgrp-0
     RDKit          3D

 13 13  0  0  0  0  0  0  0  0999 V2000
   13.0750   15.5020   21.5040 C   0  0  0  0  0  0  0  0  0  0  0  0
   12.7530   14.4170   22.4890 C   0  0  0  0  0  0  0  0  0  0  0  0
   11.2470   14.3230   22.6260 C   0  0  1  0  0  0  0  0  0  0  0  0
   10.5530   14.3640   21.2490 C   0  0  0  0  0  0  0  0  0  0  0  0
   10.7630   13.2410   23.5710 C   0  0  0  0  0  0  0  0  0  0  0  0
   10.9640   13.3970   24.7640 O   0  0  0  0  0  0  0  0  0  0  0  0
   10.1050   12.1740   23.0160 N   0  0  0  0  0  0  0  0  0  0  0  0
    9.1690   11.5180   23.7800 C   0  0  0  0  0  0  0  0  0  0  0  0
    8.1500   11.9990   24.5720 C   0  0  0  0  0  0  0  0  0  0  0  0
    7.5360   10.7350   25.1220 C   0  0  0  0  0  0  0  0  0  0  0  0
    6.3500   10.8050   26.0740 C   0  0  0  0  0  0  0  0  0  0  0  0
    8.1430    9.6480   24.6830 N   0  0  0  0  0  0  0  0  0  0  0  0
    9.1160   10.1380   23.8840 N   0  0  0  0  0  0  0  0  0  0  0  0
  1  2  1  0
  2  3  1  0
  3  4  1  6
  3  5  1  0
  5  6  2  0
  5  7  1  0
  7  8  1  0
  8  9  2  0
  9 10  1  0
 10 11  1  0
 10 12  2  0
 12 13  1  0
 13  8  1  0
A    1
 C1 
A    2
 C2 
A    3
 C3 
A    4
 C4 
A    5
 C5 
A    6
 O1 
A    7
 N1 
A    8
 C6 
A    9
 C7 
A   10
 C8 
A   11
 C9 
A   12
 N2 
A   13
 N3 
M  END
>  <similarity>  (57) 
1.0

>  <smiles>  (57) 
CCC(C)C(=O)Nc1cc(C)n[nH]1

>  <cmpd_id>  (57) 
CHEMSPACE-BB:CSMB00011929012,ENAMINE:Z1170249416

>  <used_subnode>  (57) 
[Xe]c1cn[nH]c1

>  <used_synthon>  (57) 
CCC(C)C(=O)N[Xe]

>  <ref_subnode>  (57) 
[Xe]c1cn[nH]c1

>  <ref_synthon>  (57) 
N#CCC(=O)N[Xe]

>  <fragmentA>  (57) 
x0556_0A

>  <fragmentB>  (57) 
x0310_0A

>  <rev_synthon>  (57) 
[Xe]c1ccn[nH]1

>  <intermed_node1>  (57) 
CCC(C)C(N)=O

>  <HA>  (57) 
13

>  <HBD>  (57) 
2

>  <HBA>  (57) 
2

>  <MW>  (57) 
181.1215121

>  <TPSA>  (57) 
57.78

>  <LogP>  (57) 
1.7027199999999998

>  <RBs>  (57) 
3

>  <G_bound>  (57) 
-8.090641117174547

>  <G_unbound>  (57) 
0.06579109473731519

>  <deltaG>  (57) 
-8.156432211911863

>  <comRMSD>  (57) 
0.5308301782327612

>  <substructure_overlap_check>  (57) 
True

>  <energy_ratio_check>  (57) 
True

>  <const_energy/unconst_energy>  (57) 
1.9847203033569094

>  <sucos>  (57) 
0.5154255406277161

>  <interactions>  (57) 
Hydrophobic_PRO-107,HBDonor_SER-125,Hydrophobic_TYR-90,Hydrophobic_TYR-89,Hydrophobic_HIS-21

>  <total_num_ints>  (57) 
5

>  <total_num_ints_nonhyd>  (57) 
1

>  <num_uniq_frag_ints>  (57) 
1

>  <num_repl_uniq_ints>  (57) 
1

>  <num_uniq_ints_lost>  (57) 
0

>  <num_new_uniq_ints>  (57) 
4

>  <int_check>  (57) 
True

>  <ref_url>  (57) 
https://pubs.acs.org/doi/10.1021/acs.jcim.3c00276?fig=tgr1&ref=pdf

>  <submitter_name>  (57) 
Steph Wills

>  <submitter_institution>  (57) 
University of Oxford

>  <submitter_email>  (57) 
stephanie.wills@balliol.ox.ac.uk

>  <generation_date>  (57) 
2023-11-23

>  <method>  (57) 
FragNetv2

>  <original SMILES>  (57) 
CCC(C)C(=O)Nc1cc(C)n[nH]1

>  <original_name>  (57) 
x0556_0A-x0310_0A_26569-0_B2S_rgrp-0

>  <ref_mols>  (57) 
x0556_0A,x0310_0A

>  <ref_pdb>  (57) 
x0310_0A

>  <rationale>  (57) 
FragNet: 2 rounds bioisosteric merging (no change in linker) incl [Xe]c1ccn[nH]1 replacing [Xe]c1cn[nH]c1 and CCC(C)C(=O)N[Xe] replacing N#CCC(=O)N[Xe]

$$$$
x0556_0A-x0310_0A_45902_B1X
     RDKit          3D

 19 19  0  0  0  0  0  0  0  0999 V2000
    5.7860   13.5720   25.5220 C   0  0  0  0  0  0  0  0  0  0  0  0
    6.2750   12.6900   26.5370 O   0  0  0  0  0  0  0  0  0  0  0  0
    6.2950   11.3730   26.1720 C   0  0  0  0  0  0  0  0  0  0  0  0
    5.4900   10.5390   26.5680 O   0  0  0  0  0  0  0  0  0  0  0  0
    7.4740   11.1260   25.2020 C   0  0  0  0  0  0  0  0  0  0  0  0
    8.2480   12.2110   24.5480 C   0  0  0  0  0  0  0  0  0  0  0  0
    9.2600   11.4470   23.7360 C   0  0  0  0  0  0  0  0  0  0  0  0
   10.1610   12.2200   23.0030 N   0  0  0  0  0  0  0  0  0  0  0  0
   10.6990   13.3400   23.6140 C   0  0  0  0  0  0  0  0  0  0  0  0
   10.1550   13.9450   24.5250 O   0  0  0  0  0  0  0  0  0  0  0  0
   12.0700   13.7920   23.1190 C   0  0  0  0  0  0  0  0  0  0  0  0
   12.3790   13.6610   21.6570 C   0  0  0  0  0  0  0  0  0  0  0  0
   13.0970   13.1730   24.0570 C   0  0  0  0  0  0  0  0  0  0  0  0
   12.2690   15.2610   23.3210 C   0  0  0  0  0  0  0  0  0  0  0  0
   12.0590   15.9620   22.0290 C   0  0  0  0  0  0  0  0  0  0  0  0
   13.1430   15.7760   21.2490 F   0  0  0  0  0  0  0  0  0  0  0  0
   11.8760   17.2750   22.1290 F   0  0  0  0  0  0  0  0  0  0  0  0
    9.1110   10.0580   23.8790 N   0  0  0  0  0  0  0  0  0  0  0  0
    8.0420    9.8450   24.7570 N   0  0  0  0  0  0  0  0  0  0  0  0
  1  2  1  0
  2  3  1  0
  3  4  2  0
  3  5  1  0
  5  6  1  0
  6  7  2  0
  7  8  1  0
  8  9  1  0
  9 10  2  0
  9 11  1  0
 11 12  1  0
 11 13  1  0
 11 14  1  0
 14 15  1  0
 15 16  1  0
 15 17  1  0
  7 18  1  0
 18 19  1  0
 19  5  2  0
A    1
 C1 
A    2
 O1 
A    3
 C2 
A    4
 O2 
A    5
 C3 
A    6
 C4 
A    7
 C5 
A    8
 N1 
A    9
 C6 
A   10
 O3 
A   11
 C7 
A   12
 C8 
A   13
 C9 
A   14
 C10
A   15
 C11
A   16
 F1 
A   17
 F2 
A   18
 N2 
A   19
 N3 
M  END
>  <similarity>  (58) 
1.0

>  <smiles>  (58) 
COC(=O)c1cc(NC(=O)C(C)(C)CC(F)F)[nH]n1

>  <cmpd_id>  (58) 
ENAMINE:Z3585554737

>  <used_subnode>  (58) 
c1cn[nH]c1

>  <used_synthon>  (58) 
CC(C)(CC(F)F)C(=O)N[Xe]

>  <ref_subnode>  (58) 
c1cn[nH]c1

>  <ref_synthon>  (58) 
N#CCC(=O)N[Xe]

>  <fragmentA>  (58) 
x0556_0A

>  <fragmentB>  (58) 
x0310_0A

>  <HA>  (58) 
19

>  <HBD>  (58) 
2

>  <HBA>  (58) 
4

>  <MW>  (58) 
275.10814778

>  <TPSA>  (58) 
84.08

>  <LogP>  (58) 
1.8161999999999998

>  <RBs>  (58) 
5

>  <G_bound>  (58) 
-4.344228517313615

>  <G_unbound>  (58) 
0.6409282524346549

>  <deltaG>  (58) 
-4.98515676974827

>  <comRMSD>  (58) 
0.5853482991380645

>  <UFFGibbs>  (58) 
512.6148289356104

>  <strain_per_HA>  (58) 
26.979727838716336

>  <substructure_overlap_check>  (58) 
True

>  <energy_ratio_check>  (58) 
True

>  <const_energy/unconst_energy>  (58) 
1.098922062619973

>  <sucos>  (58) 
0.515923347679261

>  <interactions>  (58) 
HBDonor_SER-125,Hydrophobic_HIS-21,Hydrophobic_PRO-107,Hydrophobic_TYR-89

>  <total_num_ints>  (58) 
4

>  <total_num_ints_nonhyd>  (58) 
1

>  <num_uniq_frag_ints>  (58) 
1

>  <num_repl_uniq_ints>  (58) 
1

>  <num_uniq_ints_lost>  (58) 
0

>  <num_new_uniq_ints>  (58) 
3

>  <int_check>  (58) 
True

>  <ref_url>  (58) 
https://pubs.acs.org/doi/10.1021/acs.jcim.3c00276?fig=tgr1&ref=pdf

>  <submitter_name>  (58) 
Steph Wills

>  <submitter_institution>  (58) 
University of Oxford

>  <submitter_email>  (58) 
stephanie.wills@balliol.ox.ac.uk

>  <generation_date>  (58) 
2023-11-23

>  <method>  (58) 
FragNetv2

>  <original SMILES>  (58) 
COC(=O)c1cc(NC(=O)C(C)(C)CC(F)F)[nH]n1

>  <original_name>  (58) 
x0556_0A-x0310_0A_45902_B1X

>  <ref_mols>  (58) 
x0556_0A,x0310_0A

>  <ref_pdb>  (58) 
x0310_0A

>  <rationale>  (58) 
FragNet: 1 round bioisosteric merging incl c1cn[nH]c1 and CC(C)(CC(F)F)C(=O)N[Xe] replacing N#CCC(=O)N[Xe]

$$$$
x0556_0A-x0310_0A_21356_B1X
     RDKit          3D

 18 18  0  0  0  0  0  0  0  0999 V2000
    5.8090   10.1880   26.6080 C   0  0  0  0  0  0  0  0  0  0  0  0
    6.6120   11.3300   26.4110 O   0  0  0  0  0  0  0  0  0  0  0  0
    7.5770   11.1970   25.3620 C   0  0  0  0  0  0  0  0  0  0  0  0
    8.2730   12.3140   24.6380 C   0  0  0  0  0  0  0  0  0  0  0  0
    9.1990   11.6530   23.6540 C   0  0  0  0  0  0  0  0  0  0  0  0
   10.0430   12.3210   22.7940 N   0  0  0  0  0  0  0  0  0  0  0  0
   10.7940   13.3770   23.1880 C   0  0  0  0  0  0  0  0  0  0  0  0
   10.6750   13.9750   24.2530 O   0  0  0  0  0  0  0  0  0  0  0  0
   11.7040   13.6520   22.1760 C   0  0  0  0  0  0  0  0  0  0  0  0
   12.5660   14.5420   22.8240 C   0  0  1  0  0  0  0  0  0  0  0  0
   12.0680   15.8610   22.5570 C   0  0  0  0  0  0  0  0  0  0  0  0
   12.9060   14.1380   24.2350 C   0  0  0  0  0  0  0  0  0  0  0  0
   14.2000   14.1700   24.5690 F   0  0  0  0  0  0  0  0  0  0  0  0
   12.2200   14.8460   25.1610 F   0  0  0  0  0  0  0  0  0  0  0  0
   12.5600   12.8510   24.3680 F   0  0  0  0  0  0  0  0  0  0  0  0
    9.0540   10.3420   23.7790 N   0  0  0  0  0  0  0  0  0  0  0  0
    9.7090    9.3310   23.0650 C   0  0  0  0  0  0  0  0  0  0  0  0
    8.1200   10.0690   24.7620 N   0  0  0  0  0  0  0  0  0  0  0  0
  1  2  1  0
  2  3  1  0
  3  4  1  0
  4  5  2  0
  5  6  1  0
  6  7  1  0
  7  8  2  0
  7  9  1  0
  9 10  1  0
 10 11  1  1
 10 12  1  0
 12 13  1  0
 12 14  1  0
 12 15  1  0
  5 16  1  0
 16 17  1  0
 16 18  1  0
 18  3  2  0
A    1
 C1 
A    2
 O1 
A    3
 C2 
A    4
 C3 
A    5
 C4 
A    6
 N1 
A    7
 C5 
A    8
 O2 
A    9
 C6 
A   10
 C7 
A   11
 C8 
A   12
 C9 
A   13
 F1 
A   14
 F2 
A   15
 F3 
A   16
 N2 
A   17
 C10
A   18
 N3 
M  END
>  <similarity>  (59) 
1.0

>  <smiles>  (59) 
COc1cc(NC(=O)CC(C)C(F)(F)F)n(C)n1

>  <cmpd_id>  (59) 
ENAMINE:Z2852444229

>  <used_subnode>  (59) 
c1cn[nH]c1

>  <used_synthon>  (59) 
CC(CC(=O)N[Xe])C(F)(F)F

>  <ref_subnode>  (59) 
c1cn[nH]c1

>  <ref_synthon>  (59) 
N#CCC(=O)N[Xe]

>  <fragmentA>  (59) 
x0556_0A

>  <fragmentB>  (59) 
x0310_0A

>  <HA>  (59) 
18

>  <HBD>  (59) 
1

>  <HBA>  (59) 
4

>  <MW>  (59) 
265.103811348

>  <TPSA>  (59) 
56.15

>  <LogP>  (59) 
1.9557

>  <RBs>  (59) 
4

>  <G_bound>  (59) 
-6.294353280440496

>  <G_unbound>  (59) 
1.4970979885853435

>  <deltaG>  (59) 
-7.791451269025839

>  <comRMSD>  (59) 
0.5067675017387836

>  <UFFGibbs>  (59) 
243.07199768793723

>  <strain_per_HA>  (59) 
13.503999871552068

>  <substructure_overlap_check>  (59) 
True

>  <energy_ratio_check>  (59) 
True

>  <const_energy/unconst_energy>  (59) 
0.9369765407298293

>  <sucos>  (59) 
0.5163476890418645

>  <interactions>  (59) 
HBDonor_SER-125,Hydrophobic_TYR-90,Hydrophobic_HIS-21,Hydrophobic_PRO-107,Hydrophobic_TYR-89

>  <total_num_ints>  (59) 
5

>  <total_num_ints_nonhyd>  (59) 
1

>  <num_uniq_frag_ints>  (59) 
1

>  <num_repl_uniq_ints>  (59) 
1

>  <num_uniq_ints_lost>  (59) 
0

>  <num_new_uniq_ints>  (59) 
4

>  <int_check>  (59) 
True

>  <ref_url>  (59) 
https://pubs.acs.org/doi/10.1021/acs.jcim.3c00276?fig=tgr1&ref=pdf

>  <submitter_name>  (59) 
Steph Wills

>  <submitter_institution>  (59) 
University of Oxford

>  <submitter_email>  (59) 
stephanie.wills@balliol.ox.ac.uk

>  <generation_date>  (59) 
2023-11-23

>  <method>  (59) 
FragNetv2

>  <original SMILES>  (59) 
COc1cc(NC(=O)CC(C)C(F)(F)F)n(C)n1

>  <original_name>  (59) 
x0556_0A-x0310_0A_21356_B1X

>  <ref_mols>  (59) 
x0556_0A,x0310_0A

>  <ref_pdb>  (59) 
x0310_0A

>  <rationale>  (59) 
FragNet: 1 round bioisosteric merging incl c1cn[nH]c1 and CC(CC(=O)N[Xe])C(F)(F)F replacing N#CCC(=O)N[Xe]

$$$$
x0556_0A-x0310_0A_24455_B1X
     RDKit          3D

 19 19  0  0  0  0  0  0  0  0999 V2000
   15.0250   13.6730   25.7810 C   0  0  0  0  0  0  0  0  0  0  0  0
   13.9020   14.6690   25.4940 C   0  0  0  0  0  0  0  0  0  0  0  0
   12.9340   14.3210   24.3260 C   0  0  0  0  0  0  0  0  0  0  0  0
   12.5940   12.8860   24.1240 C   0  0  0  0  0  0  0  0  0  0  0  0
   12.2140   15.1660   23.2910 C   0  0  0  0  0  0  0  0  0  0  0  0
   11.2970   14.3680   22.3850 C   0  0  0  0  0  0  0  0  0  0  0  0
   10.4920   13.5660   23.2340 C   0  0  0  0  0  0  0  0  0  0  0  0
   10.2940   13.8810   24.4000 O   0  0  0  0  0  0  0  0  0  0  0  0
    9.9450   12.3990   22.7420 N   0  0  0  0  0  0  0  0  0  0  0  0
    9.1410   11.6060   23.6020 C   0  0  0  0  0  0  0  0  0  0  0  0
    9.0550   10.2540   23.9120 N   0  0  0  0  0  0  0  0  0  0  0  0
    8.0730   10.0450   24.8450 N   0  0  0  0  0  0  0  0  0  0  0  0
    7.4590   11.2390   25.2030 C   0  0  0  0  0  0  0  0  0  0  0  0
    6.3400   11.2550   26.2370 C   0  0  0  0  0  0  0  0  0  0  0  0
    6.1680   12.2010   27.0030 O   0  0  0  0  0  0  0  0  0  0  0  0
    5.5550   10.1390   26.2410 O   0  0  0  0  0  0  0  0  0  0  0  0
    5.2330    9.6660   27.5440 C   0  0  0  0  0  0  0  0  0  0  0  0
    8.0620   12.2860   24.4640 C   0  0  0  0  0  0  0  0  0  0  0  0
    7.9210   13.7870   24.3290 C   0  0  0  0  0  0  0  0  0  0  0  0
  1  2  2  3
  2  3  1  0
  3  4  1  0
  3  5  2  3
  5  6  1  0
  6  7  1  0
  7  8  2  0
  7  9  1  0
  9 10  1  0
 10 11  1  0
 11 12  1  0
 12 13  2  0
 13 14  1  0
 14 15  2  0
 14 16  1  0
 16 17  1  0
 13 18  1  0
 18 19  1  0
 18 10  2  0
A    1
 C1 
A    2
 C2 
A    3
 C3 
A    4
 C4 
A    5
 C5 
A    6
 C6 
A    7
 C7 
A    8
 O1 
A    9
 N1 
A   10
 C8 
A   11
 N2 
A   12
 N3 
A   13
 C9 
A   14
 C10
A   15
 O2 
A   16
 O3 
A   17
 C11
A   18
 C12
A   19
 C13
M  END
>  <similarity>  (60) 
1.0

>  <smiles>  (60) 
C=CC(C)=CCC(=O)Nc1[nH]nc(C(=O)OC)c1C

>  <cmpd_id>  (60) 
ENAMINE:Z2964495578

>  <used_subnode>  (60) 
c1cn[nH]c1

>  <used_synthon>  (60) 
C=CC(C)=CCC(=O)N[Xe]

>  <ref_subnode>  (60) 
c1cn[nH]c1

>  <ref_synthon>  (60) 
N#CCC(=O)N[Xe]

>  <fragmentA>  (60) 
x0556_0A

>  <fragmentB>  (60) 
x0310_0A

>  <HA>  (60) 
19

>  <HBD>  (60) 
2

>  <HBA>  (60) 
4

>  <MW>  (60) 
263.126991404

>  <TPSA>  (60) 
84.08

>  <LogP>  (60) 
1.9656199999999997

>  <RBs>  (60) 
5

>  <G_bound>  (60) 
-6.528392039550105

>  <G_unbound>  (60) 
0.7356369303107448

>  <deltaG>  (60) 
-7.264028969860849

>  <comRMSD>  (60) 
0.8806213541414528

>  <UFFGibbs>  (60) 
329.8662859530842

>  <strain_per_HA>  (60) 
17.361383471214957

>  <substructure_overlap_check>  (60) 
True

>  <energy_ratio_check>  (60) 
True

>  <const_energy/unconst_energy>  (60) 
1.0430149064604244

>  <sucos>  (60) 
0.5174360443512787

>  <interactions>  (60) 
HBDonor_SER-125,Hydrophobic_GLU-88,Hydrophobic_HIS-21,Hydrophobic_PRO-107,Hydrophobic_TYR-89

>  <total_num_ints>  (60) 
5

>  <total_num_ints_nonhyd>  (60) 
1

>  <num_uniq_frag_ints>  (60) 
1

>  <num_repl_uniq_ints>  (60) 
1

>  <num_uniq_ints_lost>  (60) 
0

>  <num_new_uniq_ints>  (60) 
4

>  <int_check>  (60) 
True

>  <ref_url>  (60) 
https://pubs.acs.org/doi/10.1021/acs.jcim.3c00276?fig=tgr1&ref=pdf

>  <submitter_name>  (60) 
Steph Wills

>  <submitter_institution>  (60) 
University of Oxford

>  <submitter_email>  (60) 
stephanie.wills@balliol.ox.ac.uk

>  <generation_date>  (60) 
2023-11-23

>  <method>  (60) 
FragNetv2

>  <original SMILES>  (60) 
C=CC(C)=CCC(=O)Nc1[nH]nc(C(=O)OC)c1C

>  <original_name>  (60) 
x0556_0A-x0310_0A_24455_B1X

>  <ref_mols>  (60) 
x0556_0A,x0310_0A

>  <ref_pdb>  (60) 
x0310_0A

>  <rationale>  (60) 
FragNet: 1 round bioisosteric merging incl c1cn[nH]c1 and C=CC(C)=CCC(=O)N[Xe] replacing N#CCC(=O)N[Xe]

$$$$
x0556_0A-x0310_0A_22930_B1X
     RDKit          3D

 17 17  0  0  0  0  0  0  0  0999 V2000
    4.2590   10.5720   28.4110 C   0  0  0  0  0  0  0  0  0  0  0  0
    5.1030   11.6940   28.1310 O   0  0  0  0  0  0  0  0  0  0  0  0
    6.2920   11.3190   27.5760 C   0  0  0  0  0  0  0  0  0  0  0  0
    6.0980   10.8610   26.1460 C   0  0  0  0  0  0  0  0  0  0  0  0
    7.3400   10.8430   25.1900 C   0  0  0  0  0  0  0  0  0  0  0  0
    8.0120   12.0630   24.6430 C   0  0  0  0  0  0  0  0  0  0  0  0
    9.1010   11.5750   23.7630 C   0  0  0  0  0  0  0  0  0  0  0  0
    9.9220   12.4570   23.0980 N   0  0  0  0  0  0  0  0  0  0  0  0
   10.7640   13.2760   23.8010 C   0  0  0  0  0  0  0  0  0  0  0  0
   10.3180   14.0040   24.6750 O   0  0  0  0  0  0  0  0  0  0  0  0
   12.2600   13.3740   23.6580 C   0  0  0  0  0  0  0  0  0  0  0  0
   12.9750   14.4800   22.9490 C   0  0  0  0  0  0  0  0  0  0  0  0
   12.0900   15.8130   22.1560 S   0  0  0  0  0  0  0  0  0  0  0  0
   11.2190   14.7950   20.9240 C   0  0  0  0  0  0  0  0  0  0  0  0
    9.0350   10.2540   23.8160 N   0  0  0  0  0  0  0  0  0  0  0  0
    9.8540    9.3700   23.1230 C   0  0  0  0  0  0  0  0  0  0  0  0
    8.0040    9.7710   24.6700 N   0  0  0  0  0  0  0  0  0  0  0  0
  1  2  1  0
  2  3  1  0
  3  4  1  0
  4  5  1  0
  5  6  1  0
  6  7  2  0
  7  8  1  0
  8  9  1  0
  9 10  2  0
  9 11  1  0
 11 12  2  3
 12 13  1  0
 13 14  1  0
  7 15  1  0
 15 16  1  0
 15 17  1  0
 17  5  2  0
A    1
 C1 
A    2
 O1 
A    3
 C2 
A    4
 C3 
A    5
 C4 
A    6
 C5 
A    7
 C6 
A    8
 N1 
A    9
 C7 
A   10
 O2 
A   11
 C8 
A   12
 C9 
A   13
 S1 
A   14
 C10
A   15
 N2 
A   16
 C11
A   17
 N3 
M  END
>  <similarity>  (61) 
1.0

>  <smiles>  (61) 
COCCc1cc(NC(=O)C=CSC)n(C)n1

>  <cmpd_id>  (61) 
ENAMINE:Z1453922007

>  <used_subnode>  (61) 
c1cn[nH]c1

>  <used_synthon>  (61) 
CSC=CC(=O)N[Xe]

>  <ref_subnode>  (61) 
c1cn[nH]c1

>  <ref_synthon>  (61) 
N#CCC(=O)N[Xe]

>  <fragmentA>  (61) 
x0556_0A

>  <fragmentB>  (61) 
x0310_0A

>  <HA>  (61) 
17

>  <HBD>  (61) 
1

>  <HBA>  (61) 
5

>  <MW>  (61) 
255.104147784

>  <TPSA>  (61) 
56.15

>  <LogP>  (61) 
1.4242000000000001

>  <RBs>  (61) 
6

>  <G_bound>  (61) 
-9.086705817029161

>  <G_unbound>  (61) 
0.38309443236252916

>  <deltaG>  (61) 
-9.46980024939169

>  <comRMSD>  (61) 
0.7134282660401688

>  <UFFGibbs>  (61) 
95.41202999813795

>  <strain_per_HA>  (61) 
5.612472352831644

>  <substructure_overlap_check>  (61) 
True

>  <energy_ratio_check>  (61) 
True

>  <const_energy/unconst_energy>  (61) 
1.0173466544576528

>  <sucos>  (61) 
0.5176416865512803

>  <interactions>  (61) 
HBDonor_SER-125,Hydrophobic_TYR-90,Hydrophobic_HIS-21,Hydrophobic_PRO-107,Hydrophobic_TYR-89

>  <total_num_ints>  (61) 
5

>  <total_num_ints_nonhyd>  (61) 
1

>  <num_uniq_frag_ints>  (61) 
1

>  <num_repl_uniq_ints>  (61) 
1

>  <num_uniq_ints_lost>  (61) 
0

>  <num_new_uniq_ints>  (61) 
4

>  <int_check>  (61) 
True

>  <ref_url>  (61) 
https://pubs.acs.org/doi/10.1021/acs.jcim.3c00276?fig=tgr1&ref=pdf

>  <submitter_name>  (61) 
Steph Wills

>  <submitter_institution>  (61) 
University of Oxford

>  <submitter_email>  (61) 
stephanie.wills@balliol.ox.ac.uk

>  <generation_date>  (61) 
2023-11-23

>  <method>  (61) 
FragNetv2

>  <original SMILES>  (61) 
COCCc1cc(NC(=O)C=CSC)n(C)n1

>  <original_name>  (61) 
x0556_0A-x0310_0A_22930_B1X

>  <ref_mols>  (61) 
x0556_0A,x0310_0A

>  <ref_pdb>  (61) 
x0310_0A

>  <rationale>  (61) 
FragNet: 1 round bioisosteric merging incl c1cn[nH]c1 and CSC=CC(=O)N[Xe] replacing N#CCC(=O)N[Xe]

$$$$
x0556_0A-x0310_0A_1638_B1X
     RDKit          3D

 22 23  0  0  0  0  0  0  0  0999 V2000
   11.5350    9.4800   23.3160 C   0  0  0  0  0  0  0  0  0  0  0  0
   10.0880    9.5030   23.4290 C   0  0  0  0  0  0  0  0  0  0  0  0
    9.4010    8.4250   23.3180 C   0  0  0  0  0  0  0  0  0  0  0  0
   10.2390    9.8760   22.0900 C   0  0  0  0  0  0  0  0  0  0  0  0
    9.2330   10.5640   24.0570 N   0  0  0  0  0  0  0  0  0  0  0  0
    8.3580   10.2820   25.0720 N   0  0  0  0  0  0  0  0  0  0  0  0
    7.8070   11.4620   25.4000 C   0  0  0  0  0  0  0  0  0  0  0  0
    6.8090   11.7640   26.5320 C   0  0  0  0  0  0  0  0  0  0  0  0
    5.8490   10.7720   26.4850 C   0  0  0  0  0  0  0  0  0  0  0  0
    5.1370   11.9060   26.3750 C   0  0  0  0  0  0  0  0  0  0  0  0
    8.2790   12.4730   24.5870 C   0  0  0  0  0  0  0  0  0  0  0  0
    9.1900   11.8910   23.7390 C   0  0  0  0  0  0  0  0  0  0  0  0
    9.9390   12.4890   22.7680 N   0  0  0  0  0  0  0  0  0  0  0  0
   10.5400   13.6690   23.0310 C   0  0  0  0  0  0  0  0  0  0  0  0
   10.7890   14.0940   24.1540 O   0  0  0  0  0  0  0  0  0  0  0  0
   10.8360   14.4170   21.8830 C   0  0  0  0  0  0  0  0  0  0  0  0
   12.6140   14.7020   21.7480 S   0  0  0  0  0  0  0  0  0  0  0  0
   12.9440   15.2470   23.4510 C   0  0  0  0  0  0  0  0  0  0  0  0
   12.9800   14.2390   24.5700 C   0  0  0  0  0  0  0  0  0  0  0  0
   12.6200   13.0120   24.1410 F   0  0  0  0  0  0  0  0  0  0  0  0
   14.2320   14.1230   25.0760 F   0  0  0  0  0  0  0  0  0  0  0  0
   12.1680   14.6250   25.5810 F   0  0  0  0  0  0  0  0  0  0  0  0
  1  2  1  0
  2  3  1  0
  2  4  1  0
  2  5  1  0
  5  6  1  0
  6  7  2  0
  7  8  1  0
  8  9  1  0
  9 10  1  0
  7 11  1  0
 11 12  2  0
 12 13  1  0
 13 14  1  0
 14 15  2  0
 14 16  1  0
 16 17  1  0
 17 18  1  0
 18 19  1  0
 19 20  1  0
 19 21  1  0
 19 22  1  0
 12  5  1  0
 10  8  1  0
A    1
 C1 
A    2
 C2 
A    3
 C3 
A    4
 C4 
A    5
 N1 
A    6
 N2 
A    7
 C5 
A    8
 C6 
A    9
 C7 
A   10
 C8 
A   11
 C9 
A   12
 C10
A   13
 N3 
A   14
 C11
A   15
 O1 
A   16
 C12
A   17
 S1 
A   18
 C13
A   19
 C14
A   20
 F1 
A   21
 F2 
A   22
 F3 
M  END
>  <similarity>  (62) 
1.0

>  <smiles>  (62) 
CC(C)(C)n1nc(C2CC2)cc1NC(=O)CSCC(F)(F)F

>  <cmpd_id>  (62) 
ENAMINE:Z3612845201

>  <used_subnode>  (62) 
c1cn[nH]c1

>  <used_synthon>  (62) 
O=C(CSCC(F)(F)F)N[Xe]

>  <ref_subnode>  (62) 
c1cn[nH]c1

>  <ref_synthon>  (62) 
N#CCC(=O)N[Xe]

>  <fragmentA>  (62) 
x0556_0A

>  <fragmentB>  (62) 
x0310_0A

>  <HA>  (62) 
22

>  <HBD>  (62) 
1

>  <HBA>  (62) 
4

>  <MW>  (62) 
335.12791791999996

>  <TPSA>  (62) 
46.92

>  <LogP>  (62) 
3.749500000000003

>  <RBs>  (62) 
5

>  <G_bound>  (62) 
-2.7089183215755868

>  <G_unbound>  (62) 
-0.15552541320688376

>  <deltaG>  (62) 
-2.553392908368703

>  <comRMSD>  (62) 
0.8968242778821658

>  <UFFGibbs>  (62) 
20281.222108179743

>  <strain_per_HA>  (62) 
921.8737321899883

>  <substructure_overlap_check>  (62) 
True

>  <energy_ratio_check>  (62) 
True

>  <const_energy/unconst_energy>  (62) 
0.9915308158684423

>  <sucos>  (62) 
0.518081250489377

>  <interactions>  (62) 
HBDonor_SER-125,Hydrophobic_TYR-90,Hydrophobic_HIS-21,Hydrophobic_PRO-107,Hydrophobic_CYS-110,Hydrophobic_VAL-124,Hydrophobic_TYR-89,Hydrophobic_ASP-109

>  <total_num_ints>  (62) 
8

>  <total_num_ints_nonhyd>  (62) 
1

>  <num_uniq_frag_ints>  (62) 
1

>  <num_repl_uniq_ints>  (62) 
1

>  <num_uniq_ints_lost>  (62) 
0

>  <num_new_uniq_ints>  (62) 
7

>  <int_check>  (62) 
True

>  <ref_url>  (62) 
https://pubs.acs.org/doi/10.1021/acs.jcim.3c00276?fig=tgr1&ref=pdf

>  <submitter_name>  (62) 
Steph Wills

>  <submitter_institution>  (62) 
University of Oxford

>  <submitter_email>  (62) 
stephanie.wills@balliol.ox.ac.uk

>  <generation_date>  (62) 
2023-11-23

>  <method>  (62) 
FragNetv2

>  <original SMILES>  (62) 
CC(C)(C)n1nc(C2CC2)cc1NC(=O)CSCC(F)(F)F

>  <original_name>  (62) 
x0556_0A-x0310_0A_1638_B1X

>  <ref_mols>  (62) 
x0556_0A,x0310_0A

>  <ref_pdb>  (62) 
x0310_0A

>  <rationale>  (62) 
FragNet: 1 round bioisosteric merging incl c1cn[nH]c1 and O=C(CSCC(F)(F)F)N[Xe] replacing N#CCC(=O)N[Xe]

$$$$
x0556_0A-x0310_0A_12161_B1X
     RDKit          3D

 16 16  0  0  0  0  0  0  0  0999 V2000
   10.0490    9.2150   22.2690 C   0  0  0  0  0  0  0  0  0  0  0  0
    9.8700    9.2010   23.5370 C   0  0  0  0  0  0  0  0  0  0  0  0
    9.0590   10.2760   24.0400 N   0  0  0  0  0  0  0  0  0  0  0  0
    8.0090    9.9590   24.8430 N   0  0  0  0  0  0  0  0  0  0  0  0
    7.4590   11.1340   25.1600 C   0  0  0  0  0  0  0  0  0  0  0  0
    6.2560   11.1970   26.0610 C   0  0  0  0  0  0  0  0  0  0  0  0
    8.1440   12.1290   24.5660 C   0  0  0  0  0  0  0  0  0  0  0  0
    9.1900   11.6290   23.8360 C   0  0  0  0  0  0  0  0  0  0  0  0
   10.1080   12.3270   23.1220 N   0  0  0  0  0  0  0  0  0  0  0  0
   10.7160   13.4590   23.6580 C   0  0  0  0  0  0  0  0  0  0  0  0
   10.2040   14.0650   24.5850 O   0  0  0  0  0  0  0  0  0  0  0  0
   11.9380   13.8780   23.1660 C   0  0  0  0  0  0  0  0  0  0  0  0
   12.2200   13.7760   21.6680 C   0  0  0  0  0  0  0  0  0  0  0  0
   12.9960   13.2020   24.0220 C   0  0  0  0  0  0  0  0  0  0  0  0
   12.1230   15.2370   23.4740 C   0  0  0  0  0  0  0  0  0  0  0  0
   12.0160   16.1120   22.2320 C   0  0  0  0  0  0  0  0  0  0  0  0
  1  2  1  0
  2  3  1  0
  3  4  1  0
  4  5  2  0
  5  6  1  0
  5  7  1  0
  7  8  2  0
  8  9  1  0
  9 10  1  0
 10 11  2  0
 10 12  1  0
 12 13  1  0
 12 14  1  0
 12 15  1  0
 15 16  1  0
  8  3  1  0
A    1
 C1 
A    2
 C2 
A    3
 N1 
A    4
 N2 
A    5
 C3 
A    6
 C4 
A    7
 C5 
A    8
 C6 
A    9
 N3 
A   10
 C7 
A   11
 O1 
A   12
 C8 
A   13
 C9 
A   14
 C10
A   15
 C11
A   16
 C12
M  END
>  <similarity>  (63) 
1.0

>  <smiles>  (63) 
CCn1nc(C)cc1NC(=O)C(C)(C)CC

>  <cmpd_id>  (63) 
ENAMINE:Z2721029681

>  <used_subnode>  (63) 
c1cn[nH]c1

>  <used_synthon>  (63) 
CCC(C)(C)C(=O)N[Xe]

>  <ref_subnode>  (63) 
c1cn[nH]c1

>  <ref_synthon>  (63) 
N#CCC(=O)N[Xe]

>  <fragmentA>  (63) 
x0556_0A

>  <fragmentB>  (63) 
x0310_0A

>  <HA>  (63) 
16

>  <HBD>  (63) 
1

>  <HBA>  (63) 
3

>  <MW>  (63) 
223.168462292

>  <TPSA>  (63) 
46.92

>  <LogP>  (63) 
2.58612

>  <RBs>  (63) 
4

>  <G_bound>  (63) 
-12.352667228727409

>  <G_unbound>  (63) 
-0.15989448117947677

>  <deltaG>  (63) 
-12.192772747547933

>  <comRMSD>  (63) 
0.57311668253653

>  <UFFGibbs>  (63) 
338.0070871976451

>  <strain_per_HA>  (63) 
21.12544294985282

>  <substructure_overlap_check>  (63) 
True

>  <energy_ratio_check>  (63) 
True

>  <const_energy/unconst_energy>  (63) 
0.9999999982615815

>  <sucos>  (63) 
0.5196952269639276

>  <interactions>  (63) 
HBDonor_SER-125,Hydrophobic_TYR-90,Hydrophobic_HIS-21,Hydrophobic_PRO-107,Hydrophobic_VAL-124,Hydrophobic_TYR-89

>  <total_num_ints>  (63) 
6

>  <total_num_ints_nonhyd>  (63) 
1

>  <num_uniq_frag_ints>  (63) 
1

>  <num_repl_uniq_ints>  (63) 
1

>  <num_uniq_ints_lost>  (63) 
0

>  <num_new_uniq_ints>  (63) 
5

>  <int_check>  (63) 
True

>  <ref_url>  (63) 
https://pubs.acs.org/doi/10.1021/acs.jcim.3c00276?fig=tgr1&ref=pdf

>  <submitter_name>  (63) 
Steph Wills

>  <submitter_institution>  (63) 
University of Oxford

>  <submitter_email>  (63) 
stephanie.wills@balliol.ox.ac.uk

>  <generation_date>  (63) 
2023-11-23

>  <method>  (63) 
FragNetv2

>  <original SMILES>  (63) 
CCn1nc(C)cc1NC(=O)C(C)(C)CC

>  <original_name>  (63) 
x0556_0A-x0310_0A_12161_B1X

>  <ref_mols>  (63) 
x0556_0A,x0310_0A

>  <ref_pdb>  (63) 
x0310_0A

>  <rationale>  (63) 
FragNet: 1 round bioisosteric merging incl c1cn[nH]c1 and CCC(C)(C)C(=O)N[Xe] replacing N#CCC(=O)N[Xe]

$$$$
x0556_0A-x0310_0A_22814_B1X
     RDKit          3D

 20 20  0  0  0  0  0  0  0  0999 V2000
    9.7880    9.6140   23.1570 C   0  0  0  0  0  0  0  0  0  0  0  0
    8.9670   10.5750   23.8920 N   0  0  0  0  0  0  0  0  0  0  0  0
    8.0190   10.1670   24.8080 N   0  0  0  0  0  0  0  0  0  0  0  0
    7.4680   11.3140   25.2620 C   0  0  0  0  0  0  0  0  0  0  0  0
    6.3290   11.4230   26.3210 C   0  0  0  0  0  0  0  0  0  0  0  0
    6.7570   12.0150   27.4610 F   0  0  0  0  0  0  0  0  0  0  0  0
    5.8160   10.2290   26.6840 F   0  0  0  0  0  0  0  0  0  0  0  0
    5.2980   12.1870   25.9030 F   0  0  0  0  0  0  0  0  0  0  0  0
    8.1460   12.4920   24.5610 C   0  0  0  0  0  0  0  0  0  0  0  0
    9.0900   11.9490   23.7080 C   0  0  0  0  0  0  0  0  0  0  0  0
    9.9370   12.7070   22.8720 N   0  0  0  0  0  0  0  0  0  0  0  0
   11.2580   13.0430   23.1150 C   0  0  0  0  0  0  0  0  0  0  0  0
   11.8040   12.9300   24.1960 O   0  0  0  0  0  0  0  0  0  0  0  0
   12.0480   13.6060   21.8800 C   0  0  0  0  0  0  0  0  0  0  0  0
   12.8780   14.4860   22.8070 C   0  0  0  0  0  0  0  0  0  0  0  0
   11.8830   15.3580   23.5060 C   0  0  0  0  0  0  0  0  0  0  0  0
   11.8110   15.0220   25.0070 C   0  0  0  0  0  0  0  0  0  0  0  0
   10.5000   14.3820   25.1210 C   0  0  0  0  0  0  0  0  0  0  0  0
    9.7280   15.0980   26.2670 C   0  0  0  0  0  0  0  0  0  0  0  0
    9.1610   15.6470   27.1180 N   0  0  0  0  0  0  0  0  0  0  0  0
  1  2  1  0
  2  3  1  0
  3  4  2  0
  4  5  1  0
  5  6  1  0
  5  7  1  0
  5  8  1  0
  4  9  1  0
  9 10  2  0
 10 11  1  0
 11 12  1  0
 12 13  2  0
 12 14  1  0
 14 15  1  0
 15 16  1  0
 16 17  1  0
 17 18  1  0
 18 19  1  0
 19 20  3  0
 10  2  1  0
A    1
 C1 
A    2
 N1 
A    3
 N2 
A    4
 C2 
A    5
 C3 
A    6
 F1 
A    7
 F2 
A    8
 F3 
A    9
 C4 
A   10
 C5 
A   11
 N3 
A   12
 C6 
A   13
 O1 
A   14
 C7 
A   15
 C8 
A   16
 C9 
A   17
 C10
A   18
 C11
A   19
 C12
A   20
 N4 
M  END
>  <similarity>  (64) 
1.0

>  <smiles>  (64) 
Cn1nc(C(F)(F)F)cc1NC(=O)CCCCCC#N

>  <cmpd_id>  (64) 
ENAMINE:Z2676672086

>  <used_subnode>  (64) 
c1cn[nH]c1

>  <used_synthon>  (64) 
N#CCCCCCC(=O)N[Xe]

>  <ref_subnode>  (64) 
c1cn[nH]c1

>  <ref_synthon>  (64) 
N#CCC(=O)N[Xe]

>  <fragmentA>  (64) 
x0556_0A

>  <fragmentB>  (64) 
x0310_0A

>  <HA>  (64) 
20

>  <HBD>  (64) 
1

>  <HBA>  (64) 
4

>  <MW>  (64) 
288.11979576000004

>  <TPSA>  (64) 
70.71000000000001

>  <LogP>  (64) 
2.8514800000000013

>  <RBs>  (64) 
6

>  <G_bound>  (64) 
-2.8139708013194427

>  <G_unbound>  (64) 
0.9486043900104306

>  <deltaG>  (64) 
-3.7625751913298733

>  <comRMSD>  (64) 
0.7395270496405081

>  <UFFGibbs>  (64) 
383.20520290039553

>  <strain_per_HA>  (64) 
19.160260145019777

>  <substructure_overlap_check>  (64) 
True

>  <energy_ratio_check>  (64) 
True

>  <const_energy/unconst_energy>  (64) 
1.0391844658215692

>  <sucos>  (64) 
0.5197893680681137

>  <interactions>  (64) 
Hydrophobic_GLU-88,HBAcceptor_GLU-88,Hydrophobic_HIS-21,Hydrophobic_PRO-107,Hydrophobic_TYR-89

>  <total_num_ints>  (64) 
5

>  <total_num_ints_nonhyd>  (64) 
1

>  <num_uniq_frag_ints>  (64) 
1

>  <num_repl_uniq_ints>  (64) 
1

>  <num_uniq_ints_lost>  (64) 
0

>  <num_new_uniq_ints>  (64) 
4

>  <int_check>  (64) 
True

>  <ref_url>  (64) 
https://pubs.acs.org/doi/10.1021/acs.jcim.3c00276?fig=tgr1&ref=pdf

>  <submitter_name>  (64) 
Steph Wills

>  <submitter_institution>  (64) 
University of Oxford

>  <submitter_email>  (64) 
stephanie.wills@balliol.ox.ac.uk

>  <generation_date>  (64) 
2023-11-23

>  <method>  (64) 
FragNetv2

>  <original SMILES>  (64) 
Cn1nc(C(F)(F)F)cc1NC(=O)CCCCCC#N

>  <original_name>  (64) 
x0556_0A-x0310_0A_22814_B1X

>  <ref_mols>  (64) 
x0556_0A,x0310_0A

>  <ref_pdb>  (64) 
x0310_0A

>  <rationale>  (64) 
FragNet: 1 round bioisosteric merging incl c1cn[nH]c1 and N#CCCCCCC(=O)N[Xe] replacing N#CCC(=O)N[Xe]

$$$$
x0556_0A-x0310_0A_39822_B1X
     RDKit          3D

 21 22  0  0  0  0  0  0  0  0999 V2000
   12.7430   14.1450   20.4860 C   0  0  0  0  0  0  0  0  0  0  0  0
   12.8310   15.4100   21.3270 C   0  0  0  0  0  0  0  0  0  0  0  0
   12.8640   15.4540   22.6430 C   0  0  0  0  0  0  0  0  0  0  0  0
   12.3050   14.3860   23.4480 C   0  0  0  0  0  0  0  0  0  0  0  0
   11.3180   13.6290   22.6300 C   0  0  2  0  0  0  0  0  0  0  0  0
   10.4520   14.4680   21.6360 C   0  0  0  0  0  0  0  0  0  0  0  0
   10.4660   13.0490   23.5370 C   0  0  0  0  0  0  0  0  0  0  0  0
   10.4660   13.3660   24.7130 O   0  0  0  0  0  0  0  0  0  0  0  0
    9.6640   12.1280   22.9690 N   0  0  0  0  0  0  0  0  0  0  0  0
    8.8250   11.4470   23.8040 C   0  0  0  0  0  0  0  0  0  0  0  0
    8.9070   10.0320   24.0360 N   0  0  0  0  0  0  0  0  0  0  0  0
    8.0010    9.5820   24.8870 N   0  0  0  0  0  0  0  0  0  0  0  0
    7.3120   10.7060   25.2300 C   0  0  0  0  0  0  0  0  0  0  0  0
    6.1950   10.4770   26.2240 C   0  0  0  0  0  0  0  0  0  0  0  0
    7.7630   11.8880   24.5920 C   0  0  0  0  0  0  0  0  0  0  0  0
    7.2010   13.3160   24.7460 C   0  0  0  0  0  0  0  0  0  0  0  0
    6.7510   13.9820   23.4220 C   0  0  0  0  0  0  0  0  0  0  0  0
    6.2660   15.2800   24.0600 C   0  0  0  0  0  0  0  0  0  0  0  0
    6.2560   15.7350   25.5280 C   0  0  0  0  0  0  0  0  0  0  0  0
    6.7300   14.9390   26.5120 C   0  0  0  0  0  0  0  0  0  0  0  0
    7.1930   13.7350   26.0890 C   0  0  0  0  0  0  0  0  0  0  0  0
  1  2  1  0
  2  3  1  0
  3  4  1  0
  4  5  1  0
  5  6  1  6
  5  7  1  0
  7  8  2  0
  7  9  1  0
  9 10  1  0
 10 11  1  0
 11 12  1  0
 12 13  2  0
 13 14  1  0
 13 15  1  0
 15 16  1  0
 16 17  2  0
 17 18  1  0
 18 19  2  0
 19 20  1  0
 20 21  2  0
 15 10  2  0
 21 16  1  0
A    1
 C1 
A    2
 C2 
A    3
 C3 
A    4
 C4 
A    5
 C5 
A    6
 C6 
A    7
 C7 
A    8
 O1 
A    9
 N1 
A   10
 C8 
A   11
 N2 
A   12
 N3 
A   13
 C9 
A   14
 C10
A   15
 C11
A   16
 C12
A   17
 C13
A   18
 C14
A   19
 C15
A   20
 C16
A   21
 C17
M  END
>  <similarity>  (65) 
1.0

>  <smiles>  (65) 
CCCCC(C)C(=O)Nc1[nH]nc(C)c1-c1ccccc1

>  <cmpd_id>  (65) 
ENAMINE:Z2005455700

>  <used_subnode>  (65) 
c1cn[nH]c1

>  <used_synthon>  (65) 
CCCCC(C)C(=O)N[Xe]

>  <ref_subnode>  (65) 
c1cn[nH]c1

>  <ref_synthon>  (65) 
N#CCC(=O)N[Xe]

>  <fragmentA>  (65) 
x0556_0A

>  <fragmentB>  (65) 
x0310_0A

>  <HA>  (65) 
21

>  <HBD>  (65) 
2

>  <HBA>  (65) 
2

>  <MW>  (65) 
285.184112356

>  <TPSA>  (65) 
57.78

>  <LogP>  (65) 
4.1499200000000025

>  <RBs>  (65) 
6

>  <G_bound>  (65) 
-9.536158664793737

>  <G_unbound>  (65) 
0.2725079818062681

>  <deltaG>  (65) 
-9.808666646600004

>  <comRMSD>  (65) 
0.5756777150265642

>  <UFFGibbs>  (65) 
1280.9421653077345

>  <strain_per_HA>  (65) 
60.99724596703498

>  <substructure_overlap_check>  (65) 
True

>  <energy_ratio_check>  (65) 
True

>  <const_energy/unconst_energy>  (65) 
0.9907820023413214

>  <sucos>  (65) 
0.5211000436268943

>  <interactions>  (65) 
HBDonor_SER-125,Hydrophobic_TYR-90,Hydrophobic_HIS-21,Hydrophobic_PRO-107,Hydrophobic_TYR-89

>  <total_num_ints>  (65) 
5

>  <total_num_ints_nonhyd>  (65) 
1

>  <num_uniq_frag_ints>  (65) 
1

>  <num_repl_uniq_ints>  (65) 
1

>  <num_uniq_ints_lost>  (65) 
0

>  <num_new_uniq_ints>  (65) 
4

>  <int_check>  (65) 
True

>  <ref_url>  (65) 
https://pubs.acs.org/doi/10.1021/acs.jcim.3c00276?fig=tgr1&ref=pdf

>  <submitter_name>  (65) 
Steph Wills

>  <submitter_institution>  (65) 
University of Oxford

>  <submitter_email>  (65) 
stephanie.wills@balliol.ox.ac.uk

>  <generation_date>  (65) 
2023-11-23

>  <method>  (65) 
FragNetv2

>  <original SMILES>  (65) 
CCCCC(C)C(=O)Nc1[nH]nc(C)c1-c1ccccc1

>  <original_name>  (65) 
x0556_0A-x0310_0A_39822_B1X

>  <ref_mols>  (65) 
x0556_0A,x0310_0A

>  <ref_pdb>  (65) 
x0310_0A

>  <rationale>  (65) 
FragNet: 1 round bioisosteric merging incl c1cn[nH]c1 and CCCCC(C)C(=O)N[Xe] replacing N#CCC(=O)N[Xe]

$$$$
x0556_0A-x0310_0A_505_B1X
     RDKit          3D

 20 20  0  0  0  0  0  0  0  0999 V2000
    4.7360    9.9570   27.6230 C   0  0  0  0  0  0  0  0  0  0  0  0
    6.0090   10.7680   27.4950 C   0  0  0  0  0  0  0  0  0  0  0  0
    6.2730   11.6090   28.7350 C   0  0  0  0  0  0  0  0  0  0  0  0
    6.1150   11.5880   26.1960 C   0  0  0  0  0  0  0  0  0  0  0  0
    7.3000   11.3060   25.3070 C   0  0  0  0  0  0  0  0  0  0  0  0
    8.1680   12.2930   24.6270 C   0  0  0  0  0  0  0  0  0  0  0  0
    9.1330   11.6150   23.9340 C   0  0  0  0  0  0  0  0  0  0  0  0
   10.1920   12.0630   23.1590 N   0  0  0  0  0  0  0  0  0  0  0  0
   11.0440   13.0290   23.6650 C   0  0  0  0  0  0  0  0  0  0  0  0
   10.8330   13.6400   24.7060 O   0  0  0  0  0  0  0  0  0  0  0  0
   12.3150   13.3560   22.8690 C   0  0  1  0  0  0  0  0  0  0  0  0
   12.3920   14.8190   22.5970 C   0  0  0  0  0  0  0  0  0  0  0  0
   11.5970   15.3480   21.4280 C   0  0  0  0  0  0  0  0  0  0  0  0
   11.8750   14.6400   20.0910 C   0  0  0  0  0  0  0  0  0  0  0  0
   11.5440   16.8160   21.2440 C   0  0  0  0  0  0  0  0  0  0  0  0
   13.6510   12.6720   23.2270 C   0  0  0  0  0  0  0  0  0  0  0  0
   14.3550   13.2620   24.4530 C   0  0  0  0  0  0  0  0  0  0  0  0
   14.6140   12.8180   22.0300 C   0  0  0  0  0  0  0  0  0  0  0  0
    8.8340   10.2910   24.1880 N   0  0  0  0  0  0  0  0  0  0  0  0
    7.7540   10.0800   24.9990 N   0  0  0  0  0  0  0  0  0  0  0  0
  1  2  1  0
  2  3  1  0
  2  4  1  0
  4  5  1  0
  5  6  1  0
  6  7  2  0
  7  8  1  0
  8  9  1  0
  9 10  2  0
  9 11  1  0
 11 12  1  1
 12 13  1  0
 13 14  1  0
 13 15  1  0
 11 16  1  0
 16 17  1  0
 16 18  1  0
  7 19  1  0
 19 20  1  0
 20  5  2  0
A    1
 C1 
A    2
 C2 
A    3
 C3 
A    4
 C4 
A    5
 C5 
A    6
 C6 
A    7
 C7 
A    8
 N1 
A    9
 C8 
A   10
 O1 
A   11
 C9 
A   12
 C10
A   13
 C11
A   14
 C12
A   15
 C13
A   16
 C14
A   17
 C15
A   18
 C16
A   19
 N2 
A   20
 N3 
M  END
>  <similarity>  (66) 
1.0

>  <smiles>  (66) 
CC(C)Cc1cc(NC(=O)C(CC(C)C)C(C)C)[nH]n1

>  <cmpd_id>  (66) 
ENAMINE:PV-002335126290

>  <used_subnode>  (66) 
c1cn[nH]c1

>  <used_synthon>  (66) 
CC(C)CC(C(=O)N[Xe])C(C)C

>  <ref_subnode>  (66) 
c1cn[nH]c1

>  <ref_synthon>  (66) 
N#CCC(=O)N[Xe]

>  <fragmentA>  (66) 
x0556_0A

>  <fragmentB>  (66) 
x0310_0A

>  <HA>  (66) 
20

>  <HBD>  (66) 
2

>  <HBA>  (66) 
2

>  <MW>  (66) 
279.231062548

>  <TPSA>  (66) 
57.78

>  <LogP>  (66) 
3.865000000000003

>  <RBs>  (66) 
7

>  <G_bound>  (66) 
-11.235675838160128

>  <G_unbound>  (66) 
-0.5456114809938315

>  <deltaG>  (66) 
-10.690064357166296

>  <comRMSD>  (66) 
0.728169719602847

>  <UFFGibbs>  (66) 
82.55311509557441

>  <strain_per_HA>  (66) 
4.12765575477872

>  <substructure_overlap_check>  (66) 
True

>  <energy_ratio_check>  (66) 
True

>  <const_energy/unconst_energy>  (66) 
0.9372366610662228

>  <sucos>  (66) 
0.5214940730550753

>  <interactions>  (66) 
HBDonor_SER-125,Hydrophobic_TYR-90,Hydrophobic_HIS-21,Hydrophobic_PRO-107,Hydrophobic_LEU-22,Hydrophobic_CYS-110,Hydrophobic_TYR-89

>  <total_num_ints>  (66) 
7

>  <total_num_ints_nonhyd>  (66) 
1

>  <num_uniq_frag_ints>  (66) 
1

>  <num_repl_uniq_ints>  (66) 
1

>  <num_uniq_ints_lost>  (66) 
0

>  <num_new_uniq_ints>  (66) 
6

>  <int_check>  (66) 
True

>  <ref_url>  (66) 
https://pubs.acs.org/doi/10.1021/acs.jcim.3c00276?fig=tgr1&ref=pdf

>  <submitter_name>  (66) 
Steph Wills

>  <submitter_institution>  (66) 
University of Oxford

>  <submitter_email>  (66) 
stephanie.wills@balliol.ox.ac.uk

>  <generation_date>  (66) 
2023-11-23

>  <method>  (66) 
FragNetv2

>  <original SMILES>  (66) 
CC(C)Cc1cc(NC(=O)C(CC(C)C)C(C)C)[nH]n1

>  <original_name>  (66) 
x0556_0A-x0310_0A_505_B1X

>  <ref_mols>  (66) 
x0556_0A,x0310_0A

>  <ref_pdb>  (66) 
x0310_0A

>  <rationale>  (66) 
FragNet: 1 round bioisosteric merging incl c1cn[nH]c1 and CC(C)CC(C(=O)N[Xe])C(C)C replacing N#CCC(=O)N[Xe]

$$$$
x0556_0A-x0310_0A_27383_B1X
     RDKit          3D

 19 19  0  0  0  0  0  0  0  0999 V2000
   12.0080   13.6540   22.7710 C   0  0  0  0  0  0  0  0  0  0  0  0
   10.7970   13.2740   23.6180 C   0  0  0  0  0  0  0  0  0  0  0  0
   10.8920   13.5770   24.7970 O   0  0  0  0  0  0  0  0  0  0  0  0
    9.6840   12.6250   22.9380 N   0  0  0  0  0  0  0  0  0  0  0  0
    8.8060   11.8570   23.8540 C   0  0  0  0  0  0  0  0  0  0  0  0
    8.8510   10.4340   24.1060 N   0  0  0  0  0  0  0  0  0  0  0  0
    7.9380    9.9930   24.9760 N   0  0  0  0  0  0  0  0  0  0  0  0
    7.2530   11.1070   25.3380 C   0  0  0  0  0  0  0  0  0  0  0  0
    6.0900   11.0250   26.3470 C   0  0  0  0  0  0  0  0  0  0  0  0
    5.2550   11.9280   26.4090 O   0  0  0  0  0  0  0  0  0  0  0  0
    5.9540    9.9380   27.2050 N   0  0  0  0  0  0  0  0  0  0  0  0
    5.1700    9.9300   28.3520 C   0  0  0  0  0  0  0  0  0  0  0  0
    6.1080   10.1360   29.5660 C   0  0  0  0  0  0  0  0  0  0  0  0
    5.2850    9.0680   30.3330 C   0  0  0  0  0  0  0  0  0  0  0  0
    4.1180    9.6980   31.0920 C   0  0  0  0  0  0  0  0  0  0  0  0
    4.5090   10.0820   32.5280 C   0  0  0  0  0  0  0  0  0  0  0  0
    3.5620    9.7420   33.4220 F   0  0  0  0  0  0  0  0  0  0  0  0
    7.7710   12.2610   24.6620 C   0  0  0  0  0  0  0  0  0  0  0  0
    7.1690   14.0300   24.8180 Br  0  0  0  0  0  0  0  0  0  0  0  0
  1  2  1  0
  2  3  2  0
  2  4  1  0
  4  5  1  0
  5  6  1  0
  6  7  1  0
  7  8  2  0
  8  9  1  0
  9 10  2  0
  9 11  1  0
 11 12  1  0
 12 13  1  0
 13 14  1  0
 14 15  1  0
 15 16  1  0
 16 17  1  0
  8 18  1  0
 18 19  1  0
 18  5  2  0
A    1
 C1 
A    2
 C2 
A    3
 O1 
A    4
 N1 
A    5
 C3 
A    6
 N2 
A    7
 N3 
A    8
 C4 
A    9
 C5 
A   10
 O2 
A   11
 N4 
A   12
 C6 
A   13
 C7 
A   14
 C8 
A   15
 C9 
A   16
 C10
A   17
 F1 
A   18
 C11
A   19
BR1 
M  END
>  <similarity>  (67) 
1.0

>  <smiles>  (67) 
CC(=O)Nc1[nH]nc(C(=O)NCCCCCF)c1Br

>  <cmpd_id>  (67) 
ENAMINE:Z4325942636

>  <used_subnode>  (67) 
c1cn[nH]c1

>  <used_synthon>  (67) 
CC(=O)N[Xe]

>  <ref_subnode>  (67) 
c1cn[nH]c1

>  <ref_synthon>  (67) 
N#CCC(=O)N[Xe]

>  <fragmentA>  (67) 
x0556_0A

>  <fragmentB>  (67) 
x0310_0A

>  <HA>  (67) 
19

>  <HBD>  (67) 
3

>  <HBA>  (67) 
3

>  <MW>  (67) 
334.04406607199996

>  <TPSA>  (67) 
86.88

>  <LogP>  (67) 
2.0001999999999995

>  <RBs>  (67) 
7

>  <G_bound>  (67) 
-5.540582055202281

>  <G_unbound>  (67) 
1.3127977723040096

>  <deltaG>  (67) 
-6.8533798275062905

>  <comRMSD>  (67) 
0.7100327798726626

>  <UFFGibbs>  (67) 
135.0868718496045

>  <strain_per_HA>  (67) 
7.1098353605055005

>  <substructure_overlap_check>  (67) 
True

>  <energy_ratio_check>  (67) 
True

>  <const_energy/unconst_energy>  (67) 
1.0623709423405125

>  <sucos>  (67) 
0.5221529800942746

>  <interactions>  (67) 
Hydrophobic_HIS-21,HBDonor_SER-105,Hydrophobic_PRO-107,Hydrophobic_GLU-106

>  <total_num_ints>  (67) 
4

>  <total_num_ints_nonhyd>  (67) 
1

>  <num_uniq_frag_ints>  (67) 
1

>  <num_repl_uniq_ints>  (67) 
1

>  <num_uniq_ints_lost>  (67) 
0

>  <num_new_uniq_ints>  (67) 
3

>  <int_check>  (67) 
True

>  <ref_url>  (67) 
https://pubs.acs.org/doi/10.1021/acs.jcim.3c00276?fig=tgr1&ref=pdf

>  <submitter_name>  (67) 
Steph Wills

>  <submitter_institution>  (67) 
University of Oxford

>  <submitter_email>  (67) 
stephanie.wills@balliol.ox.ac.uk

>  <generation_date>  (67) 
2023-11-23

>  <method>  (67) 
FragNetv2

>  <original SMILES>  (67) 
CC(=O)Nc1[nH]nc(C(=O)NCCCCCF)c1Br

>  <original_name>  (67) 
x0556_0A-x0310_0A_27383_B1X

>  <ref_mols>  (67) 
x0556_0A,x0310_0A

>  <ref_pdb>  (67) 
x0310_0A

>  <rationale>  (67) 
FragNet: 1 round bioisosteric merging incl c1cn[nH]c1 and CC(=O)N[Xe] replacing N#CCC(=O)N[Xe]

$$$$
x0556_0A-x0310_0A_54719_B1X
     RDKit          3D

 18 18  0  0  0  0  0  0  0  0999 V2000
   12.8180   14.7050   25.1860 C   0  0  0  0  0  0  0  0  0  0  0  0
   11.9990   15.1930   24.0030 C   0  0  0  0  0  0  0  0  0  0  0  0
   12.5280   14.6730   22.7090 C   0  0  0  0  0  0  0  0  0  0  0  0
   11.5140   13.7050   22.1600 C   0  0  2  0  0  0  0  0  0  0  0  0
   10.4640   14.3460   21.2250 C   0  0  0  0  0  0  0  0  0  0  0  0
   11.0070   14.6850   19.9610 C   0  0  0  0  0  0  0  0  0  0  0  0
   10.8850   13.0580   23.2330 C   0  0  0  0  0  0  0  0  0  0  0  0
   11.3230   13.1450   24.3680 O   0  0  0  0  0  0  0  0  0  0  0  0
    9.7590   12.3480   22.8920 N   0  0  0  0  0  0  0  0  0  0  0  0
    8.8870   11.7060   23.7950 C   0  0  0  0  0  0  0  0  0  0  0  0
    8.8600   10.3960   24.1370 N   0  0  0  0  0  0  0  0  0  0  0  0
    7.8380   10.3100   25.0190 N   0  0  0  0  0  0  0  0  0  0  0  0
    7.2050   11.5040   25.2630 C   0  0  0  0  0  0  0  0  0  0  0  0
    6.0200   11.5830   26.2360 C   0  0  0  0  0  0  0  0  0  0  0  0
    6.1790   10.8900   27.2450 O   0  0  0  0  0  0  0  0  0  0  0  0
    5.0650   12.3060   25.9480 O   0  0  0  0  0  0  0  0  0  0  0  0
    7.8670   12.4240   24.4820 C   0  0  0  0  0  0  0  0  0  0  0  0
    7.5230   13.9120   24.4070 C   0  0  0  0  0  0  0  0  0  0  0  0
  1  2  1  0
  2  3  1  0
  4  3  1  1
  4  5  1  0
  5  6  1  0
  4  7  1  0
  7  8  2  0
  7  9  1  0
  9 10  1  0
 10 11  2  0
 11 12  1  0
 12 13  1  0
 13 14  1  0
 14 15  2  0
 14 16  1  0
 13 17  2  0
 17 18  1  0
 17 10  1  0
A    1
 C1 
A    2
 C2 
A    3
 C3 
A    4
 C4 
A    5
 C5 
A    6
 C6 
A    7
 C7 
A    8
 O1 
A    9
 N1 
A   10
 C8 
A   11
 N2 
A   12
 N3 
A   13
 C9 
A   14
 C10
A   15
 O2 
A   16
 O3 
A   17
 C11
A   18
 C12
M  END
>  <similarity>  (68) 
1.0

>  <smiles>  (68) 
CCCC(CC)C(=O)Nc1n[nH]c(C(=O)O)c1C

>  <cmpd_id>  (68) 
ENAMINE:Z3508881421

>  <used_subnode>  (68) 
c1cn[nH]c1

>  <used_synthon>  (68) 
CCCC(CC)C(=O)N[Xe]

>  <ref_subnode>  (68) 
c1cn[nH]c1

>  <ref_synthon>  (68) 
N#CCC(=O)N[Xe]

>  <fragmentA>  (68) 
x0556_0A

>  <fragmentB>  (68) 
x0310_0A

>  <HA>  (68) 
18

>  <HBD>  (68) 
3

>  <HBA>  (68) 
3

>  <MW>  (68) 
253.142641468

>  <TPSA>  (68) 
95.08

>  <LogP>  (68) 
2.18112

>  <RBs>  (68) 
6

>  <G_bound>  (68) 
-6.160920339703066

>  <G_unbound>  (68) 
0.24077106467114323

>  <deltaG>  (68) 
-6.401691404374209

>  <comRMSD>  (68) 
0.6308966590400994

>  <UFFGibbs>  (68) 
454.6585313378217

>  <strain_per_HA>  (68) 
25.25880729654565

>  <substructure_overlap_check>  (68) 
True

>  <energy_ratio_check>  (68) 
True

>  <const_energy/unconst_energy>  (68) 
1.1547229537716495

>  <sucos>  (68) 
0.5227779402289088

>  <interactions>  (68) 
Hydrophobic_GLU-88,Hydrophobic_TYR-90,HBDonor_GLY-127,Hydrophobic_HIS-21,HBDonor_SER-105,Hydrophobic_PRO-107,Hydrophobic_TYR-89,Hydrophobic_THR-126

>  <total_num_ints>  (68) 
8

>  <total_num_ints_nonhyd>  (68) 
2

>  <num_uniq_frag_ints>  (68) 
1

>  <num_repl_uniq_ints>  (68) 
1

>  <num_uniq_ints_lost>  (68) 
0

>  <num_new_uniq_ints>  (68) 
7

>  <int_check>  (68) 
True

>  <ref_url>  (68) 
https://pubs.acs.org/doi/10.1021/acs.jcim.3c00276?fig=tgr1&ref=pdf

>  <submitter_name>  (68) 
Steph Wills

>  <submitter_institution>  (68) 
University of Oxford

>  <submitter_email>  (68) 
stephanie.wills@balliol.ox.ac.uk

>  <generation_date>  (68) 
2023-11-23

>  <method>  (68) 
FragNetv2

>  <original SMILES>  (68) 
CCCC(CC)C(=O)Nc1n[nH]c(C(=O)O)c1C

>  <original_name>  (68) 
x0556_0A-x0310_0A_54719_B1X

>  <ref_mols>  (68) 
x0556_0A,x0310_0A

>  <ref_pdb>  (68) 
x0310_0A

>  <rationale>  (68) 
FragNet: 1 round bioisosteric merging incl c1cn[nH]c1 and CCCC(CC)C(=O)N[Xe] replacing N#CCC(=O)N[Xe]

$$$$
x0556_0A-x0310_0A_52839_B1X
     RDKit          3D

 21 22  0  0  0  0  0  0  0  0999 V2000
    9.8350    9.3700   23.0080 C   0  0  0  0  0  0  0  0  0  0  0  0
    9.0470   10.2830   23.7980 N   0  0  0  0  0  0  0  0  0  0  0  0
    8.1090    9.8460   24.7090 N   0  0  0  0  0  0  0  0  0  0  0  0
    7.6040   10.9810   25.2400 C   0  0  0  0  0  0  0  0  0  0  0  0
    6.5210   11.0530   26.3540 C   0  0  0  0  0  0  0  0  0  0  0  0
    5.4050   10.1090   26.6840 C   0  0  0  0  0  0  0  0  0  0  0  0
    4.5480   10.5330   27.8820 C   0  0  0  0  0  0  0  0  0  0  0  0
    5.0490   12.0300   28.6060 S   0  0  0  0  0  0  0  0  0  0  0  0
    6.4060   12.1740   27.3820 C   0  0  0  0  0  0  0  0  0  0  0  0
    8.1750   12.1040   24.6920 C   0  0  0  0  0  0  0  0  0  0  0  0
    9.1020   11.6610   23.7800 C   0  0  0  0  0  0  0  0  0  0  0  0
    9.9570   12.4060   22.9930 N   0  0  0  0  0  0  0  0  0  0  0  0
   10.6290   13.4080   23.6470 C   0  0  0  0  0  0  0  0  0  0  0  0
   10.2390   13.9090   24.6920 O   0  0  0  0  0  0  0  0  0  0  0  0
   11.9240   13.8880   23.0620 C   0  0  0  0  0  0  0  0  0  0  0  0
   12.9340   13.1820   23.7600 C   0  0  0  0  0  0  0  0  0  0  0  0
   12.2920   13.7620   21.7010 C   0  0  0  0  0  0  0  0  0  0  0  0
   12.2260   15.3490   23.3740 C   0  0  0  0  0  0  0  0  0  0  0  0
   12.0530   16.1620   22.1080 C   0  0  0  0  0  0  0  0  0  0  0  0
   13.1200   15.8520   21.3320 F   0  0  0  0  0  0  0  0  0  0  0  0
   11.0010   15.6510   21.4250 F   0  0  0  0  0  0  0  0  0  0  0  0
  1  2  1  0
  2  3  1  0
  3  4  2  0
  4  5  1  0
  5  6  1  0
  6  7  2  0
  7  8  1  0
  8  9  1  0
  4 10  1  0
 10 11  2  0
 11 12  1  0
 12 13  1  0
 13 14  2  0
 13 15  1  0
 15 16  1  0
 15 17  1  0
 15 18  1  0
 18 19  1  0
 19 20  1  0
 19 21  1  0
 11  2  1  0
  9  5  2  0
A    1
 C1 
A    2
 N1 
A    3
 N2 
A    4
 C2 
A    5
 C3 
A    6
 C4 
A    7
 C5 
A    8
 S1 
A    9
 C6 
A   10
 C7 
A   11
 C8 
A   12
 N3 
A   13
 C9 
A   14
 O1 
A   15
 C10
A   16
 C11
A   17
 C12
A   18
 C13
A   19
 C14
A   20
 F1 
A   21
 F2 
M  END
>  <similarity>  (69) 
1.0

>  <smiles>  (69) 
Cn1nc(-c2ccsc2)cc1NC(=O)C(C)(C)CC(F)F

>  <cmpd_id>  (69) 
ENAMINE:Z2331925101

>  <used_subnode>  (69) 
c1cn[nH]c1

>  <used_synthon>  (69) 
CC(C)(CC(F)F)C(=O)N[Xe]

>  <ref_subnode>  (69) 
c1cn[nH]c1

>  <ref_synthon>  (69) 
N#CCC(=O)N[Xe]

>  <fragmentA>  (69) 
x0556_0A

>  <fragmentB>  (69) 
x0310_0A

>  <HA>  (69) 
21

>  <HBD>  (69) 
1

>  <HBA>  (69) 
4

>  <MW>  (69) 
313.106039604

>  <TPSA>  (69) 
46.92

>  <LogP>  (69) 
3.768500000000002

>  <RBs>  (69) 
5

>  <G_bound>  (69) 
-8.454000996282105

>  <G_unbound>  (69) 
0.2574660097213049

>  <deltaG>  (69) 
-8.71146700600341

>  <comRMSD>  (69) 
0.5697550698413113

>  <UFFGibbs>  (69) 
970.584025582431

>  <strain_per_HA>  (69) 
46.21828693249671

>  <substructure_overlap_check>  (69) 
True

>  <energy_ratio_check>  (69) 
True

>  <const_energy/unconst_energy>  (69) 
0.9859786349820602

>  <sucos>  (69) 
0.5232078667911102

>  <interactions>  (69) 
HBDonor_SER-125,Hydrophobic_HIS-21,Hydrophobic_PRO-107,Hydrophobic_TYR-89

>  <total_num_ints>  (69) 
4

>  <total_num_ints_nonhyd>  (69) 
1

>  <num_uniq_frag_ints>  (69) 
1

>  <num_repl_uniq_ints>  (69) 
1

>  <num_uniq_ints_lost>  (69) 
0

>  <num_new_uniq_ints>  (69) 
3

>  <int_check>  (69) 
True

>  <ref_url>  (69) 
https://pubs.acs.org/doi/10.1021/acs.jcim.3c00276?fig=tgr1&ref=pdf

>  <submitter_name>  (69) 
Steph Wills

>  <submitter_institution>  (69) 
University of Oxford

>  <submitter_email>  (69) 
stephanie.wills@balliol.ox.ac.uk

>  <generation_date>  (69) 
2023-11-23

>  <method>  (69) 
FragNetv2

>  <original SMILES>  (69) 
Cn1nc(-c2ccsc2)cc1NC(=O)C(C)(C)CC(F)F

>  <original_name>  (69) 
x0556_0A-x0310_0A_52839_B1X

>  <ref_mols>  (69) 
x0556_0A,x0310_0A

>  <ref_pdb>  (69) 
x0310_0A

>  <rationale>  (69) 
FragNet: 1 round bioisosteric merging incl c1cn[nH]c1 and CC(C)(CC(F)F)C(=O)N[Xe] replacing N#CCC(=O)N[Xe]

$$$$
x0556_0A-x0310_0A_42472_B1X
     RDKit          3D

 20 21  0  0  0  0  0  0  0  0999 V2000
    9.5950    9.5850   23.2550 C   0  0  0  0  0  0  0  0  0  0  0  0
    8.8250   10.5030   23.9510 N   0  0  0  0  0  0  0  0  0  0  0  0
    7.9490   10.0980   24.9380 N   0  0  0  0  0  0  0  0  0  0  0  0
    7.3420   11.2150   25.4290 C   0  0  0  0  0  0  0  0  0  0  0  0
    6.2970   11.0670   26.5720 C   0  0  1  0  0  0  0  0  0  0  0  0
    6.6710   12.2610   27.5000 C   0  0  0  0  0  0  0  0  0  0  0  0
    5.6470   13.3270   27.3420 C   0  0  0  0  0  0  0  0  0  0  0  0
    4.7230   12.7350   26.3250 C   0  0  0  0  0  0  0  0  0  0  0  0
    5.0970   11.3270   26.2690 O   0  0  0  0  0  0  0  0  0  0  0  0
    7.8340   12.4160   24.7340 C   0  0  0  0  0  0  0  0  0  0  0  0
    8.8320   11.8930   23.7510 C   0  0  0  0  0  0  0  0  0  0  0  0
    9.5330   12.8160   22.8850 N   0  0  0  0  0  0  0  0  0  0  0  0
   10.9000   13.1820   23.2000 C   0  0  0  0  0  0  0  0  0  0  0  0
   11.3340   13.1490   24.3340 O   0  0  0  0  0  0  0  0  0  0  0  0
   11.7290   13.6100   21.9780 C   0  0  0  0  0  0  0  0  0  0  0  0
   12.9290   14.8760   22.4540 S   0  0  0  0  0  0  0  0  0  0  0  0
   11.9480   15.3810   23.8050 C   0  0  0  0  0  0  0  0  0  0  0  0
   12.3720   14.8970   25.0650 C   0  0  0  0  0  0  0  0  0  0  0  0
   11.4110   15.0820   26.0860 C   0  0  0  0  0  0  0  0  0  0  0  0
   10.4620   15.3160   27.0450 N   0  0  0  0  0  0  0  0  0  0  0  0
  1  2  1  0
  2  3  1  0
  3  4  2  0
  5  4  1  6
  5  6  1  0
  6  7  1  0
  7  8  1  0
  8  9  1  0
  4 10  1  0
 10 11  2  0
 11 12  1  0
 12 13  1  0
 13 14  2  0
 13 15  1  0
 15 16  1  0
 16 17  1  0
 17 18  1  0
 18 19  1  0
 19 20  3  0
 11  2  1  0
  9  5  1  0
A    1
 C1 
A    2
 N1 
A    3
 N2 
A    4
 C2 
A    5
 C3 
A    6
 C4 
A    7
 C5 
A    8
 C6 
A    9
 O1 
A   10
 C7 
A   11
 C8 
A   12
 N3 
A   13
 C9 
A   14
 O2 
A   15
 C10
A   16
 S1 
A   17
 C11
A   18
 C12
A   19
 C13
A   20
 N4 
M  END
>  <similarity>  (70) 
1.0

>  <smiles>  (70) 
Cn1nc(C2CCCO2)cc1NC(=O)CSCCC#N

>  <cmpd_id>  (70) 
ENAMINE:Z3940787091

>  <used_subnode>  (70) 
c1cn[nH]c1

>  <used_synthon>  (70) 
N#CCCSCC(=O)N[Xe]

>  <ref_subnode>  (70) 
c1cn[nH]c1

>  <ref_synthon>  (70) 
N#CCC(=O)N[Xe]

>  <fragmentA>  (70) 
x0556_0A

>  <fragmentB>  (70) 
x0310_0A

>  <HA>  (70) 
20

>  <HBD>  (70) 
1

>  <HBA>  (70) 
6

>  <MW>  (70) 
294.115046816

>  <TPSA>  (70) 
79.94

>  <LogP>  (70) 
1.8569799999999999

>  <RBs>  (70) 
6

>  <G_bound>  (70) 
-4.874680328592019

>  <G_unbound>  (70) 
0.9604245004432322

>  <deltaG>  (70) 
-5.835104829035251

>  <comRMSD>  (70) 
0.6546713507935763

>  <UFFGibbs>  (70) 
516.8614790284034

>  <strain_per_HA>  (70) 
25.843073951420173

>  <substructure_overlap_check>  (70) 
True

>  <energy_ratio_check>  (70) 
True

>  <const_energy/unconst_energy>  (70) 
0.995826716742443

>  <sucos>  (70) 
0.5237634270134117

>  <interactions>  (70) 
Hydrophobic_GLU-88,HBAcceptor_GLU-88,Hydrophobic_TYR-90,Hydrophobic_HIS-21,Hydrophobic_PRO-107,Hydrophobic_TYR-89

>  <total_num_ints>  (70) 
6

>  <total_num_ints_nonhyd>  (70) 
1

>  <num_uniq_frag_ints>  (70) 
1

>  <num_repl_uniq_ints>  (70) 
1

>  <num_uniq_ints_lost>  (70) 
0

>  <num_new_uniq_ints>  (70) 
5

>  <int_check>  (70) 
True

>  <ref_url>  (70) 
https://pubs.acs.org/doi/10.1021/acs.jcim.3c00276?fig=tgr1&ref=pdf

>  <submitter_name>  (70) 
Steph Wills

>  <submitter_institution>  (70) 
University of Oxford

>  <submitter_email>  (70) 
stephanie.wills@balliol.ox.ac.uk

>  <generation_date>  (70) 
2023-11-23

>  <method>  (70) 
FragNetv2

>  <original SMILES>  (70) 
Cn1nc(C2CCCO2)cc1NC(=O)CSCCC#N

>  <original_name>  (70) 
x0556_0A-x0310_0A_42472_B1X

>  <ref_mols>  (70) 
x0556_0A,x0310_0A

>  <ref_pdb>  (70) 
x0310_0A

>  <rationale>  (70) 
FragNet: 1 round bioisosteric merging incl c1cn[nH]c1 and N#CCCSCC(=O)N[Xe] replacing N#CCC(=O)N[Xe]

$$$$
x0556_0A-x0310_0A_379_PXX
     RDKit          3D

 15 15  0  0  0  0  0  0  0  0999 V2000
   12.1010   16.2010   22.5540 N   0  0  0  0  0  0  0  0  0  0  0  0
   12.1290   15.0510   22.6160 C   0  0  0  0  0  0  0  0  0  0  0  0
   12.1030   13.6030   22.7160 C   0  0  0  0  0  0  0  0  0  0  0  0
   10.9170   13.1770   23.5350 C   0  0  0  0  0  0  0  0  0  0  0  0
   10.7040   13.6560   24.6420 O   0  0  0  0  0  0  0  0  0  0  0  0
   10.0820   12.2260   22.9870 N   0  0  0  0  0  0  0  0  0  0  0  0
    9.0570   11.6020   23.8640 C   0  0  0  0  0  0  0  0  0  0  0  0
    8.0430   12.4770   24.6850 C   0  0  0  0  0  0  0  0  0  0  0  0
    7.6440   11.1400   25.0860 C   0  0  0  0  0  0  0  0  0  0  0  0
    6.5820   11.7670   25.9810 C   0  0  0  0  0  0  0  0  0  0  0  0
    5.7260   10.8440   26.5060 F   0  0  0  0  0  0  0  0  0  0  0  0
    7.1120   12.4160   27.0520 F   0  0  0  0  0  0  0  0  0  0  0  0
    5.8110   12.6940   25.3590 F   0  0  0  0  0  0  0  0  0  0  0  0
    7.7630   10.0430   25.0300 N   0  0  0  0  0  0  0  0  0  0  0  0
    8.7990   10.2280   24.1400 N   0  0  0  0  0  0  0  0  0  0  0  0
  1  2  3  0
  2  3  1  0
  3  4  1  0
  4  5  2  0
  4  6  1  0
  6  7  1  0
  7  8  2  0
  8  9  1  0
  9 10  1  0
 10 11  1  0
 10 12  1  0
 10 13  1  0
  9 14  2  0
 14 15  1  0
 15  7  1  0
A    1
 N1 
A    2
 C1 
A    3
 C2 
A    4
 C3 
A    5
 O1 
A    6
 N2 
A    7
 C4 
A    8
 C5 
A    9
 C6 
A   10
 C7 
A   11
 F1 
A   12
 F2 
A   13
 F3 
A   14
 N3 
A   15
 N4 
M  END
>  <similarity>  (71) 
NA

>  <smiles>  (71) 
N#CCC(=O)Nc1cc(C(F)(F)F)n[nH]1

>  <cmpd_id>  (71) 
ENAMINE:Z2957505129

>  <used_subnode>  (71) 
NA

>  <used_synthon>  (71) 
NA

>  <ref_subnode>  (71) 
c1cn[nH]c1

>  <ref_synthon>  (71) 
N#CCC(=O)N[Xe]

>  <fragmentA>  (71) 
x0556_0A

>  <fragmentB>  (71) 
x0310_0A

>  <HA>  (71) 
15

>  <HBD>  (71) 
2

>  <HBA>  (71) 
3

>  <MW>  (71) 
218.04154544

>  <TPSA>  (71) 
81.57

>  <LogP>  (71) 
1.2806799999999996

>  <RBs>  (71) 
2

>  <G_bound>  (71) 
-3.709683213079825

>  <G_unbound>  (71) 
0.5217281944021211

>  <deltaG>  (71) 
-4.231411407481946

>  <comRMSD>  (71) 
0.37572051163663417

>  <substructure_overlap_check>  (71) 
True

>  <energy_ratio_check>  (71) 
True

>  <const_energy/unconst_energy>  (71) 
5.948950031979765

>  <sucos>  (71) 
0.5239051632670612

>  <interactions>  (71) 
Hydrophobic_HIS-21,Hydrophobic_PRO-107,HBDonor_SER-125

>  <total_num_ints>  (71) 
3

>  <total_num_ints_nonhyd>  (71) 
1

>  <num_uniq_frag_ints>  (71) 
1

>  <num_repl_uniq_ints>  (71) 
1

>  <num_uniq_ints_lost>  (71) 
0

>  <num_new_uniq_ints>  (71) 
2

>  <int_check>  (71) 
True

>  <ref_url>  (71) 
https://pubs.acs.org/doi/10.1021/acs.jcim.3c00276?fig=tgr1&ref=pdf

>  <submitter_name>  (71) 
Steph Wills

>  <submitter_institution>  (71) 
University of Oxford

>  <submitter_email>  (71) 
stephanie.wills@balliol.ox.ac.uk

>  <generation_date>  (71) 
2023-11-23

>  <method>  (71) 
FragNetv2

>  <original SMILES>  (71) 
N#CCC(=O)Nc1cc(C(F)(F)F)n[nH]1

>  <original_name>  (71) 
x0556_0A-x0310_0A_379_PXX

>  <ref_mols>  (71) 
x0556_0A,x0310_0A

>  <ref_pdb>  (71) 
x0310_0A

>  <rationale>  (71) 
FragNet: perfect merge incl c1cn[nH]c1,N#CCC(=O)N[Xe]

$$$$
x0556_0A-x0310_0A_21489_B1X
     RDKit          3D

 21 21  0  0  0  0  0  0  0  0999 V2000
    5.2630    9.6500   27.6450 C   0  0  0  0  0  0  0  0  0  0  0  0
    5.4720   10.1650   26.3290 O   0  0  0  0  0  0  0  0  0  0  0  0
    6.3620   11.1850   26.2770 C   0  0  0  0  0  0  0  0  0  0  0  0
    6.2880   12.1860   26.9820 O   0  0  0  0  0  0  0  0  0  0  0  0
    7.4990   10.9370   25.2330 C   0  0  0  0  0  0  0  0  0  0  0  0
    8.1390   12.1220   24.6890 C   0  0  0  0  0  0  0  0  0  0  0  0
    9.2060   11.6430   23.7180 C   0  0  0  0  0  0  0  0  0  0  0  0
   10.0530   12.4390   22.9980 N   0  0  0  0  0  0  0  0  0  0  0  0
   10.7110   13.4660   23.6470 C   0  0  0  0  0  0  0  0  0  0  0  0
   10.3060   14.0390   24.6450 O   0  0  0  0  0  0  0  0  0  0  0  0
   12.0660   13.8410   23.0440 C   0  0  0  0  0  0  0  0  0  0  0  0
   12.4830   13.7100   21.6600 C   0  0  0  0  0  0  0  0  0  0  0  0
   13.0660   13.2170   23.9960 C   0  0  0  0  0  0  0  0  0  0  0  0
   12.2830   15.2040   23.2280 C   0  0  0  0  0  0  0  0  0  0  0  0
   12.0730   15.8550   22.0060 C   0  0  0  0  0  0  0  0  0  0  0  0
   10.9860   15.4040   21.3440 F   0  0  0  0  0  0  0  0  0  0  0  0
   13.1470   15.7180   21.2130 F   0  0  0  0  0  0  0  0  0  0  0  0
   11.8880   17.1670   22.1700 F   0  0  0  0  0  0  0  0  0  0  0  0
    9.1430   10.2780   23.7270 N   0  0  0  0  0  0  0  0  0  0  0  0
    9.9030    9.3600   23.0060 C   0  0  0  0  0  0  0  0  0  0  0  0
    8.1510    9.8820   24.6130 N   0  0  0  0  0  0  0  0  0  0  0  0
  1  2  1  0
  2  3  1  0
  3  4  2  0
  3  5  1  0
  5  6  1  0
  6  7  2  0
  7  8  1  0
  8  9  1  0
  9 10  2  0
  9 11  1  0
 11 12  1  0
 11 13  1  0
 11 14  1  0
 14 15  1  0
 15 16  1  0
 15 17  1  0
 15 18  1  0
  7 19  1  0
 19 20  1  0
 19 21  1  0
 21  5  2  0
A    1
 C1 
A    2
 O1 
A    3
 C2 
A    4
 O2 
A    5
 C3 
A    6
 C4 
A    7
 C5 
A    8
 N1 
A    9
 C6 
A   10
 O3 
A   11
 C7 
A   12
 C8 
A   13
 C9 
A   14
 C10
A   15
 C11
A   16
 F1 
A   17
 F2 
A   18
 F3 
A   19
 N2 
A   20
 C12
A   21
 N3 
M  END
>  <similarity>  (72) 
1.0

>  <smiles>  (72) 
COC(=O)c1cc(NC(=O)C(C)(C)CC(F)(F)F)n(C)n1

>  <cmpd_id>  (72) 
ENAMINE:Z3087211194

>  <used_subnode>  (72) 
c1cn[nH]c1

>  <used_synthon>  (72) 
CC(C)(CC(F)(F)F)C(=O)N[Xe]

>  <ref_subnode>  (72) 
c1cn[nH]c1

>  <ref_synthon>  (72) 
N#CCC(=O)N[Xe]

>  <fragmentA>  (72) 
x0556_0A

>  <fragmentB>  (72) 
x0310_0A

>  <HA>  (72) 
21

>  <HBD>  (72) 
1

>  <HBA>  (72) 
5

>  <MW>  (72) 
307.11437603200005

>  <TPSA>  (72) 
73.22

>  <LogP>  (72) 
2.1238

>  <RBs>  (72) 
4

>  <G_bound>  (72) 
-6.87105170339881

>  <G_unbound>  (72) 
1.8296080745347927

>  <deltaG>  (72) 
-8.700659777933602

>  <comRMSD>  (72) 
0.5982448783671246

>  <UFFGibbs>  (72) 
1100.0558089654653

>  <strain_per_HA>  (72) 
52.38360995073644

>  <substructure_overlap_check>  (72) 
True

>  <energy_ratio_check>  (72) 
True

>  <const_energy/unconst_energy>  (72) 
0.9501012171173998

>  <sucos>  (72) 
0.5239323628522077

>  <interactions>  (72) 
HBDonor_SER-125,Hydrophobic_HIS-21,Hydrophobic_PRO-107,Hydrophobic_TYR-89

>  <total_num_ints>  (72) 
4

>  <total_num_ints_nonhyd>  (72) 
1

>  <num_uniq_frag_ints>  (72) 
1

>  <num_repl_uniq_ints>  (72) 
1

>  <num_uniq_ints_lost>  (72) 
0

>  <num_new_uniq_ints>  (72) 
3

>  <int_check>  (72) 
True

>  <ref_url>  (72) 
https://pubs.acs.org/doi/10.1021/acs.jcim.3c00276?fig=tgr1&ref=pdf

>  <submitter_name>  (72) 
Steph Wills

>  <submitter_institution>  (72) 
University of Oxford

>  <submitter_email>  (72) 
stephanie.wills@balliol.ox.ac.uk

>  <generation_date>  (72) 
2023-11-23

>  <method>  (72) 
FragNetv2

>  <original SMILES>  (72) 
COC(=O)c1cc(NC(=O)C(C)(C)CC(F)(F)F)n(C)n1

>  <original_name>  (72) 
x0556_0A-x0310_0A_21489_B1X

>  <ref_mols>  (72) 
x0556_0A,x0310_0A

>  <ref_pdb>  (72) 
x0310_0A

>  <rationale>  (72) 
FragNet: 1 round bioisosteric merging incl c1cn[nH]c1 and CC(C)(CC(F)(F)F)C(=O)N[Xe] replacing N#CCC(=O)N[Xe]

$$$$
x0556_0A-x0310_0A_30145_B1X
     RDKit          3D

 19 19  0  0  0  0  0  0  0  0999 V2000
   11.8000   13.6390   22.6710 C   0  0  0  0  0  0  0  0  0  0  0  0
   10.6560   13.2700   23.6160 C   0  0  0  0  0  0  0  0  0  0  0  0
   10.7670   13.7530   24.9460 O   0  0  0  0  0  0  0  0  0  0  0  0
    9.4850   12.4920   23.2280 N   0  0  0  0  0  0  0  0  0  0  0  0
    8.6650   11.7530   24.0630 C   0  0  0  0  0  0  0  0  0  0  0  0
    8.6960   10.3930   24.1990 N   0  0  0  0  0  0  0  0  0  0  0  0
    7.7920    9.9000   25.0760 N   0  0  0  0  0  0  0  0  0  0  0  0
    7.1220   10.9770   25.5580 C   0  0  0  0  0  0  0  0  0  0  0  0
    5.9810   10.8410   26.6180 C   0  0  0  0  0  0  0  0  0  0  0  0
    5.5390   11.8060   27.2350 O   0  0  0  0  0  0  0  0  0  0  0  0
    5.4880    9.5470   26.8280 N   0  0  0  0  0  0  0  0  0  0  0  0
    4.8330    9.1050   27.9400 C   0  0  0  0  0  0  0  0  0  0  0  0
    3.6310    8.2400   27.4470 C   0  0  2  0  0  0  0  0  0  0  0  0
    2.4920    8.5470   28.3210 C   0  0  0  0  0  0  0  0  0  0  0  0
    3.9000    6.4250   27.2210 S   0  0  0  0  0  3  0  0  0  0  0  0
    3.2590    6.4770   25.5000 C   0  0  0  0  0  0  0  0  0  0  0  0
    2.9580    5.6500   27.9950 O   0  0  0  0  0  1  0  0  0  0  0  0
    7.6590   12.1480   24.9270 C   0  0  0  0  0  0  0  0  0  0  0  0
    7.1150   13.9210   25.2100 Br  0  0  0  0  0  0  0  0  0  0  0  0
  1  2  1  0
  2  3  2  0
  2  4  1  0
  4  5  1  0
  5  6  1  0
  6  7  1  0
  7  8  2  0
  8  9  1  0
  9 10  2  0
  9 11  1  0
 11 12  1  0
 12 13  1  0
 13 14  1  1
 13 15  1  0
 15 16  1  6
 15 17  1  0
  8 18  1  0
 18 19  1  0
 18  5  2  0
M  CHG  2  15   1  17  -1
A    1
 C1 
A    2
 C2 
A    3
 O1 
A    4
 N1 
A    5
 C3 
A    6
 N2 
A    7
 N3 
A    8
 C4 
A    9
 C5 
A   10
 O2 
A   11
 N4 
A   12
 C6 
A   13
 C7 
A   14
 C8 
A   15
 S1 
A   16
 C9 
A   17
 O3 
A   18
 C10
A   19
BR1 
M  END
>  <similarity>  (73) 
1.0

>  <smiles>  (73) 
CC(=O)Nc1[nH]nc(C(=O)NCC(C)[S+](C)[O-])c1Br

>  <cmpd_id>  (73) 
ENAMINE:PV-003845595548

>  <used_subnode>  (73) 
c1cn[nH]c1

>  <used_synthon>  (73) 
CC(=O)N[Xe]

>  <ref_subnode>  (73) 
c1cn[nH]c1

>  <ref_synthon>  (73) 
N#CCC(=O)N[Xe]

>  <fragmentA>  (73) 
x0556_0A

>  <fragmentB>  (73) 
x0310_0A

>  <HA>  (73) 
19

>  <HBD>  (73) 
3

>  <HBA>  (73) 
4

>  <MW>  (73) 
350.00482344000005

>  <TPSA>  (73) 
109.94

>  <LogP>  (73) 
0.6273999999999997

>  <RBs>  (73) 
5

>  <G_bound>  (73) 
-7.931898298307706

>  <G_unbound>  (73) 
0.8435138352854417

>  <deltaG>  (73) 
-8.775412133593148

>  <comRMSD>  (73) 
0.4784918566423731

>  <UFFGibbs>  (73) 
122.64664595376738

>  <strain_per_HA>  (73) 
6.455086629145652

>  <substructure_overlap_check>  (73) 
True

>  <energy_ratio_check>  (73) 
True

>  <const_energy/unconst_energy>  (73) 
0.9914713255924533

>  <sucos>  (73) 
0.5243339228018349

>  <interactions>  (73) 
Hydrophobic_HIS-21,HBDonor_SER-105,Hydrophobic_PRO-107,Anionic_HIS-104

>  <total_num_ints>  (73) 
4

>  <total_num_ints_nonhyd>  (73) 
2

>  <num_uniq_frag_ints>  (73) 
1

>  <num_repl_uniq_ints>  (73) 
1

>  <num_uniq_ints_lost>  (73) 
0

>  <num_new_uniq_ints>  (73) 
3

>  <int_check>  (73) 
True

>  <ref_url>  (73) 
https://pubs.acs.org/doi/10.1021/acs.jcim.3c00276?fig=tgr1&ref=pdf

>  <submitter_name>  (73) 
Steph Wills

>  <submitter_institution>  (73) 
University of Oxford

>  <submitter_email>  (73) 
stephanie.wills@balliol.ox.ac.uk

>  <generation_date>  (73) 
2023-11-23

>  <method>  (73) 
FragNetv2

>  <original SMILES>  (73) 
CC(=O)Nc1[nH]nc(C(=O)NCC(C)[S+](C)[O-])c1Br

>  <original_name>  (73) 
x0556_0A-x0310_0A_30145_B1X

>  <ref_mols>  (73) 
x0556_0A,x0310_0A

>  <ref_pdb>  (73) 
x0310_0A

>  <rationale>  (73) 
FragNet: 1 round bioisosteric merging incl c1cn[nH]c1 and CC(=O)N[Xe] replacing N#CCC(=O)N[Xe]

$$$$
x0556_0A-x0310_0A_53998_B1X
     RDKit          3D

 19 19  0  0  0  0  0  0  0  0999 V2000
    7.3070   13.2650   25.2500 C   0  0  0  0  0  0  0  0  0  0  0  0
    7.9780   12.0140   24.6890 C   0  0  0  0  0  0  0  0  0  0  0  0
    7.5440   10.6740   25.2270 C   0  0  0  0  0  0  0  0  0  0  0  0
    8.3140    9.6400   24.5500 N   0  0  0  0  0  0  0  0  0  0  0  0
    9.1090   10.3430   23.7050 N   0  0  0  0  0  0  0  0  0  0  0  0
   10.0380    9.6570   22.8170 C   0  0  0  0  0  0  0  0  0  0  0  0
   11.0440    8.7340   23.3590 C   0  0  0  0  0  0  0  0  0  0  0  0
    9.4330    8.4350   22.2500 C   0  0  0  0  0  0  0  0  0  0  0  0
    8.9520   11.6460   23.7550 C   0  0  0  0  0  0  0  0  0  0  0  0
    9.5920   12.6210   23.0450 N   0  0  0  0  0  0  0  0  0  0  0  0
   10.6010   13.3850   23.7270 C   0  0  0  0  0  0  0  0  0  0  0  0
   10.5120   14.0090   24.7800 O   0  0  0  0  0  0  0  0  0  0  0  0
   11.8710   13.3010   22.9420 C   0  0  0  0  0  0  0  0  0  0  0  0
   12.3740   14.6180   22.4560 C   0  0  0  0  0  0  0  0  0  0  0  0
   11.8500   15.8900   22.4770 C   0  0  0  0  0  0  0  0  0  0  0  0
   13.4540   14.7990   23.2260 C   0  0  0  0  0  0  0  0  0  0  0  0
   12.7670   14.4350   21.0050 C   0  0  0  0  0  0  0  0  0  0  0  0
   13.6930   15.3600   20.7260 F   0  0  0  0  0  0  0  0  0  0  0  0
   11.7030   14.6920   20.2020 F   0  0  0  0  0  0  0  0  0  0  0  0
  1  2  1  0
  2  3  1  0
  3  4  2  0
  4  5  1  0
  5  6  1  0
  6  7  1  0
  6  8  1  0
  5  9  1  0
  9 10  1  0
 10 11  1  0
 11 12  2  0
 11 13  1  0
 13 14  1  0
 14 15  1  0
 14 16  1  0
 14 17  1  0
 17 18  1  0
 17 19  1  0
  9  2  2  0
A    1
 C1 
A    2
 C2 
A    3
 C3 
A    4
 N1 
A    5
 N2 
A    6
 C4 
A    7
 C5 
A    8
 C6 
A    9
 C7 
A   10
 N3 
A   11
 C8 
A   12
 O1 
A   13
 C9 
A   14
 C10
A   15
 C11
A   16
 C12
A   17
 C13
A   18
 F1 
A   19
 F2 
M  END
>  <similarity>  (74) 
1.0

>  <smiles>  (74) 
Cc1cnn(C(C)C)c1NC(=O)CC(C)(C)C(F)F

>  <cmpd_id>  (74) 
ENAMINE:Z4466634391

>  <used_subnode>  (74) 
c1cn[nH]c1

>  <used_synthon>  (74) 
CC(C)(CC(=O)N[Xe])C(F)F

>  <ref_subnode>  (74) 
c1cn[nH]c1

>  <ref_synthon>  (74) 
N#CCC(=O)N[Xe]

>  <fragmentA>  (74) 
x0556_0A

>  <fragmentB>  (74) 
x0310_0A

>  <HA>  (74) 
19

>  <HBD>  (74) 
1

>  <HBA>  (74) 
3

>  <MW>  (74) 
273.165268732

>  <TPSA>  (74) 
46.92

>  <LogP>  (74) 
3.3923200000000016

>  <RBs>  (74) 
5

>  <G_bound>  (74) 
-5.530985509370151

>  <G_unbound>  (74) 
0.12269203449445366

>  <deltaG>  (74) 
-5.653677543864604

>  <comRMSD>  (74) 
0.6012709894985906

>  <UFFGibbs>  (74) 
2094.118941051246

>  <strain_per_HA>  (74) 
110.21678637111822

>  <substructure_overlap_check>  (74) 
True

>  <energy_ratio_check>  (74) 
True

>  <const_energy/unconst_energy>  (74) 
0.9863206923756987

>  <sucos>  (74) 
0.5245278705257066

>  <interactions>  (74) 
HBDonor_SER-125,Hydrophobic_TYR-90,Hydrophobic_HIS-21,Hydrophobic_PRO-107,Hydrophobic_CYS-110,Hydrophobic_VAL-124,Hydrophobic_TYR-89,Hydrophobic_ASP-109

>  <total_num_ints>  (74) 
8

>  <total_num_ints_nonhyd>  (74) 
1

>  <num_uniq_frag_ints>  (74) 
1

>  <num_repl_uniq_ints>  (74) 
1

>  <num_uniq_ints_lost>  (74) 
0

>  <num_new_uniq_ints>  (74) 
7

>  <int_check>  (74) 
True

>  <ref_url>  (74) 
https://pubs.acs.org/doi/10.1021/acs.jcim.3c00276?fig=tgr1&ref=pdf

>  <submitter_name>  (74) 
Steph Wills

>  <submitter_institution>  (74) 
University of Oxford

>  <submitter_email>  (74) 
stephanie.wills@balliol.ox.ac.uk

>  <generation_date>  (74) 
2023-11-23

>  <method>  (74) 
FragNetv2

>  <original SMILES>  (74) 
Cc1cnn(C(C)C)c1NC(=O)CC(C)(C)C(F)F

>  <original_name>  (74) 
x0556_0A-x0310_0A_53998_B1X

>  <ref_mols>  (74) 
x0556_0A,x0310_0A

>  <ref_pdb>  (74) 
x0310_0A

>  <rationale>  (74) 
FragNet: 1 round bioisosteric merging incl c1cn[nH]c1 and CC(C)(CC(=O)N[Xe])C(F)F replacing N#CCC(=O)N[Xe]

$$$$
x0556_0A-x0310_0A_14175_B1X
     RDKit          3D

 20 20  0  0  0  0  0  0  0  0999 V2000
   11.4980    9.6180   22.6380 C   0  0  0  0  0  0  0  0  0  0  0  0
   10.2070    9.6770   22.4600 C   0  0  0  0  0  0  0  0  0  0  0  0
    9.1720    9.3200   23.4840 C   0  0  0  0  0  0  0  0  0  0  0  0
    8.5700   10.3610   24.1090 N   0  0  0  0  0  0  0  0  0  0  0  0
    7.6390    9.9670   25.0110 N   0  0  0  0  0  0  0  0  0  0  0  0
    7.1980   11.1130   25.4520 C   0  0  0  0  0  0  0  0  0  0  0  0
    7.8640   12.3270   24.8250 C   0  0  0  0  0  0  0  0  0  0  0  0
    7.4160   13.7280   25.2790 C   0  0  0  0  0  0  0  0  0  0  0  0
    8.1830   14.6490   25.5230 O   0  0  0  0  0  0  0  0  0  0  0  0
    6.0560   13.8340   25.3950 O   0  0  0  0  0  0  0  0  0  0  0  0
    5.4690   15.0440   24.8810 C   0  0  0  0  0  0  0  0  0  0  0  0
    5.6600   15.2990   23.3780 C   0  0  0  0  0  0  0  0  0  0  0  0
    8.7800   11.7560   23.9390 C   0  0  0  0  0  0  0  0  0  0  0  0
    9.7240   12.2780   23.0530 N   0  0  0  0  0  0  0  0  0  0  0  0
   10.9020   12.9080   23.5600 C   0  0  0  0  0  0  0  0  0  0  0  0
   11.0120   13.4910   24.6300 O   0  0  0  0  0  0  0  0  0  0  0  0
   12.0970   12.8230   22.6410 C   0  0  0  0  0  0  0  0  0  0  0  0
   12.9550   13.9640   22.5370 C   0  0  0  0  0  0  0  0  0  0  0  0
   12.6740   15.3810   23.4120 S   0  0  0  0  0  0  0  0  0  0  0  0
   12.9630   14.7000   25.0630 C   0  0  0  0  0  0  0  0  0  0  0  0
  1  2  1  0
  2  3  1  0
  3  4  1  0
  4  5  1  0
  5  6  2  0
  6  7  1  0
  7  8  1  0
  8  9  2  0
  8 10  1  0
 10 11  1  0
 11 12  1  0
  7 13  2  0
 13 14  1  0
 14 15  1  0
 15 16  2  0
 15 17  1  0
 17 18  2  3
 18 19  1  0
 19 20  1  0
 13  4  1  0
A    1
 C1 
A    2
 C2 
A    3
 C3 
A    4
 N1 
A    5
 N2 
A    6
 C4 
A    7
 C5 
A    8
 C6 
A    9
 O1 
A   10
 O2 
A   11
 C7 
A   12
 C8 
A   13
 C9 
A   14
 N3 
A   15
 C10
A   16
 O3 
A   17
 C11
A   18
 C12
A   19
 S1 
A   20
 C13
M  END
>  <similarity>  (75) 
1.0

>  <smiles>  (75) 
CCCn1ncc(C(=O)OCC)c1NC(=O)C=CSC

>  <cmpd_id>  (75) 
ENAMINE:Z1580106382

>  <used_subnode>  (75) 
c1cn[nH]c1

>  <used_synthon>  (75) 
CSC=CC(=O)N[Xe]

>  <ref_subnode>  (75) 
c1cn[nH]c1

>  <ref_synthon>  (75) 
N#CCC(=O)N[Xe]

>  <fragmentA>  (75) 
x0556_0A

>  <fragmentB>  (75) 
x0310_0A

>  <HA>  (75) 
20

>  <HBD>  (75) 
1

>  <HBA>  (75) 
6

>  <MW>  (75) 
297.11471246800005

>  <TPSA>  (75) 
73.22

>  <LogP>  (75) 
2.285

>  <RBs>  (75) 
7

>  <G_bound>  (75) 
-7.275318306752435

>  <G_unbound>  (75) 
1.633328694087077

>  <deltaG>  (75) 
-8.908647000839512

>  <comRMSD>  (75) 
0.6956266037380375

>  <UFFGibbs>  (75) 
1618.7579445606673

>  <strain_per_HA>  (75) 
80.93789722803336

>  <substructure_overlap_check>  (75) 
True

>  <energy_ratio_check>  (75) 
True

>  <const_energy/unconst_energy>  (75) 
1.0582514439966366

>  <sucos>  (75) 
0.5247998427184297

>  <interactions>  (75) 
Hydrophobic_VAL-84,HBDonor_SER-125,Hydrophobic_GLU-88,Hydrophobic_TYR-90,Hydrophobic_HIS-21,HBAcceptor_SER-87,Hydrophobic_GLU-85,Hydrophobic_PRO-107,Hydrophobic_CYS-110,Hydrophobic_VAL-124,Hydrophobic_TYR-89

>  <total_num_ints>  (75) 
11

>  <total_num_ints_nonhyd>  (75) 
2

>  <num_uniq_frag_ints>  (75) 
1

>  <num_repl_uniq_ints>  (75) 
1

>  <num_uniq_ints_lost>  (75) 
0

>  <num_new_uniq_ints>  (75) 
10

>  <int_check>  (75) 
True

>  <ref_url>  (75) 
https://pubs.acs.org/doi/10.1021/acs.jcim.3c00276?fig=tgr1&ref=pdf

>  <submitter_name>  (75) 
Steph Wills

>  <submitter_institution>  (75) 
University of Oxford

>  <submitter_email>  (75) 
stephanie.wills@balliol.ox.ac.uk

>  <generation_date>  (75) 
2023-11-23

>  <method>  (75) 
FragNetv2

>  <original SMILES>  (75) 
CCCn1ncc(C(=O)OCC)c1NC(=O)C=CSC

>  <original_name>  (75) 
x0556_0A-x0310_0A_14175_B1X

>  <ref_mols>  (75) 
x0556_0A,x0310_0A

>  <ref_pdb>  (75) 
x0310_0A

>  <rationale>  (75) 
FragNet: 1 round bioisosteric merging incl c1cn[nH]c1 and CSC=CC(=O)N[Xe] replacing N#CCC(=O)N[Xe]

$$$$
x0556_0A-x0310_0A_39960_B1X
     RDKit          3D

 20 20  0  0  0  0  0  0  0  0999 V2000
   11.1130    9.7820   22.7820 C   0  0  0  0  0  0  0  0  0  0  0  0
    9.7620    9.2690   23.2160 C   0  0  0  0  0  0  0  0  0  0  0  0
    8.9450   10.2320   23.9290 N   0  0  0  0  0  0  0  0  0  0  0  0
    7.9620    9.7270   24.7730 N   0  0  0  0  0  0  0  0  0  0  0  0
    7.3590   10.7860   25.2900 C   0  0  0  0  0  0  0  0  0  0  0  0
    6.3250   10.5890   26.1680 C   0  0  0  0  0  0  0  0  0  0  0  0
    8.0230   11.9960   24.7260 C   0  0  0  0  0  0  0  0  0  0  0  0
    9.0110   11.6040   23.8830 C   0  0  0  0  0  0  0  0  0  0  0  0
    9.8500   12.4140   23.1780 N   0  0  0  0  0  0  0  0  0  0  0  0
   10.7140   13.3820   23.7660 C   0  0  0  0  0  0  0  0  0  0  0  0
   10.6990   13.8380   24.8980 O   0  0  0  0  0  0  0  0  0  0  0  0
   11.7290   13.8440   22.7430 C   0  0  2  0  0  0  0  0  0  0  0  0
   12.6050   12.7090   22.2440 C   0  0  0  0  0  0  0  0  0  0  0  0
   12.4070   15.1280   23.1130 C   0  0  0  0  0  0  0  0  0  0  0  0
   12.1020   16.2970   22.2370 C   0  0  0  0  0  0  0  0  0  0  0  0
   10.4650   14.1150   21.8690 C   0  0  0  0  0  0  0  0  0  0  0  0
   10.5670   15.0180   20.7870 C   0  0  0  0  0  0  0  0  0  0  0  0
    9.4200   15.1160   19.9860 C   0  0  0  0  0  0  0  0  0  0  0  0
    9.2430   16.5830   19.5160 C   0  0  0  0  0  0  0  0  0  0  0  0
    9.7230   14.3710   18.7110 C   0  0  0  0  0  0  0  0  0  0  0  0
  1  2  1  0
  2  3  1  0
  3  4  1  0
  4  5  2  0
  5  6  1  0
  5  7  1  0
  7  8  2  0
  8  9  1  0
  9 10  1  0
 10 11  2  0
 10 12  1  0
 12 13  1  6
 12 14  1  0
 14 15  1  0
 12 16  1  0
 16 17  1  0
 17 18  1  0
 18 19  1  0
 18 20  1  0
  8  3  1  0
A    1
 C1 
A    2
 C2 
A    3
 N1 
A    4
 N2 
A    5
 C3 
A    6
 C4 
A    7
 C5 
A    8
 C6 
A    9
 N3 
A   10
 C7 
A   11
 O1 
A   12
 C8 
A   13
 C9 
A   14
 C10
A   15
 C11
A   16
 C12
A   17
 C13
A   18
 C14
A   19
 C15
A   20
 C16
M  END
>  <similarity>  (76) 
1.0

>  <smiles>  (76) 
CCn1nc(C)cc1NC(=O)C(C)(CC)CCC(C)C

>  <cmpd_id>  (76) 
ENAMINE:PV-002954885113

>  <used_subnode>  (76) 
c1cn[nH]c1

>  <used_synthon>  (76) 
CCC(C)(CCC(C)C)C(=O)N[Xe]

>  <ref_subnode>  (76) 
c1cn[nH]c1

>  <ref_synthon>  (76) 
N#CCC(=O)N[Xe]

>  <fragmentA>  (76) 
x0556_0A

>  <fragmentB>  (76) 
x0310_0A

>  <HA>  (76) 
20

>  <HBD>  (76) 
1

>  <HBA>  (76) 
3

>  <MW>  (76) 
279.231062548

>  <TPSA>  (76) 
46.92

>  <LogP>  (76) 
4.002420000000003

>  <RBs>  (76) 
7

>  <G_bound>  (76) 
-11.986886384099718

>  <G_unbound>  (76) 
-1.2388988756978485

>  <deltaG>  (76) 
-10.747987508401868

>  <comRMSD>  (76) 
0.4800490113507312

>  <UFFGibbs>  (76) 
775025.8340837704

>  <strain_per_HA>  (76) 
38751.29170418852

>  <substructure_overlap_check>  (76) 
True

>  <energy_ratio_check>  (76) 
True

>  <const_energy/unconst_energy>  (76) 
1.1224762577810021

>  <sucos>  (76) 
0.5253533997999269

>  <interactions>  (76) 
Hydrophobic_VAL-84,HBDonor_SER-125,Hydrophobic_TYR-90,Hydrophobic_HIS-21,Hydrophobic_PRO-107,Hydrophobic_CYS-110,Hydrophobic_VAL-124,Hydrophobic_TYR-89

>  <total_num_ints>  (76) 
8

>  <total_num_ints_nonhyd>  (76) 
1

>  <num_uniq_frag_ints>  (76) 
1

>  <num_repl_uniq_ints>  (76) 
1

>  <num_uniq_ints_lost>  (76) 
0

>  <num_new_uniq_ints>  (76) 
7

>  <int_check>  (76) 
True

>  <ref_url>  (76) 
https://pubs.acs.org/doi/10.1021/acs.jcim.3c00276?fig=tgr1&ref=pdf

>  <submitter_name>  (76) 
Steph Wills

>  <submitter_institution>  (76) 
University of Oxford

>  <submitter_email>  (76) 
stephanie.wills@balliol.ox.ac.uk

>  <generation_date>  (76) 
2023-11-23

>  <method>  (76) 
FragNetv2

>  <original SMILES>  (76) 
CCn1nc(C)cc1NC(=O)C(C)(CC)CCC(C)C

>  <original_name>  (76) 
x0556_0A-x0310_0A_39960_B1X

>  <ref_mols>  (76) 
x0556_0A,x0310_0A

>  <ref_pdb>  (76) 
x0310_0A

>  <rationale>  (76) 
FragNet: 1 round bioisosteric merging incl c1cn[nH]c1 and CCC(C)(CCC(C)C)C(=O)N[Xe] replacing N#CCC(=O)N[Xe]

$$$$
x0310_0A-x0556_0A_1272-14_B2L
     RDKit          3D

 18 18  0  0  0  0  0  0  0  0999 V2000
   11.9320   15.8940   22.3920 C   0  0  0  0  0  0  0  0  0  0  0  0
   12.8140   14.7110   22.0650 C   0  0  0  0  0  0  0  0  0  0  0  0
   12.7950   14.2420   20.6180 C   0  0  0  0  0  0  0  0  0  0  0  0
   12.5520   13.5370   23.0270 C   0  0  1  0  0  0  0  0  0  0  0  0
   13.4210   13.5880   24.2770 C   0  0  0  0  0  0  0  0  0  0  0  0
   11.1150   13.4940   23.5110 C   0  0  0  0  0  0  0  0  0  0  0  0
   10.7390   14.2500   24.3940 O   0  0  0  0  0  0  0  0  0  0  0  0
   10.2990   12.5440   22.9550 N   0  0  0  0  0  0  0  0  0  0  0  0
    9.2700   12.0150   23.7340 C   0  0  0  0  0  0  0  0  0  0  0  0
    8.3340   12.9480   24.4650 C   0  0  0  0  0  0  0  0  0  0  0  0
    7.3400   12.4630   25.2620 C   0  0  0  0  0  0  0  0  0  0  0  0
    7.2400   10.9700   25.3650 C   0  0  0  0  0  0  0  0  0  0  0  0
    6.0220   10.3200   26.3770 Cl  0  0  0  0  0  0  0  0  0  0  0  0
    8.0550   10.1000   24.7100 N   0  0  0  0  0  0  0  0  0  0  0  0
    9.0490   10.6430   23.9090 C   0  0  0  0  0  0  0  0  0  0  0  0
    9.8940    9.7340   23.2330 C   0  0  0  0  0  0  0  0  0  0  0  0
    9.3110    8.5810   22.8500 N   0  0  0  0  0  0  0  0  0  0  0  0
   11.0700    9.9670   22.9770 O   0  0  0  0  0  0  0  0  0  0  0  0
  1  2  1  0
  2  3  1  0
  2  4  1  0
  4  5  1  1
  4  6  1  0
  6  7  2  0
  6  8  1  0
  8  9  1  0
  9 10  2  0
 10 11  1  0
 11 12  2  0
 12 13  1  0
 12 14  1  0
 14 15  2  0
 15 16  1  0
 16 17  1  0
 16 18  2  0
 15  9  1  0
A    1
 C1 
A    2
 C2 
A    3
 C3 
A    4
 C4 
A    5
 C5 
A    6
 C6 
A    7
 O1 
A    8
 N1 
A    9
 C7 
A   10
 C8 
A   11
 C9 
A   12
 C10
A   13
CL1 
A   14
 N2 
A   15
 C11
A   16
 C12
A   17
 N3 
A   18
 O2 
M  END
>  <similarity>  (77) 
1.0

>  <smiles>  (77) 
CC(C)C(C)C(=O)Nc1ccc(Cl)nc1C(N)=O

>  <cmpd_id>  (77) 
ENAMINE:Z1555217664

>  <used_subnode>  (77) 
N#CCC(=O)N[Xe]

>  <used_synthon>  (77) 
[Xe]c1ccccn1

>  <ref_subnode>  (77) 
N#CCC(=O)N[Xe]

>  <ref_synthon>  (77) 
[Xe]n1cccn1

>  <fragmentA>  (77) 
x0310_0A

>  <fragmentB>  (77) 
x0556_0A

>  <rev_synthon>  (77) 
CC(C)C(C)C(=O)N[Xe]

>  <intermed_node1>  (77) 
NC(=O)c1cccc(Cl)n1

>  <HA>  (77) 
18

>  <HBD>  (77) 
2

>  <HBA>  (77) 
3

>  <MW>  (77) 
269.093104432

>  <TPSA>  (77) 
85.08000000000001

>  <LogP>  (77) 
2.0645

>  <RBs>  (77) 
4

>  <G_bound>  (77) 
-8.012341053481844

>  <G_unbound>  (77) 
0.7538658589336227

>  <deltaG>  (77) 
-8.766206912415466

>  <comRMSD>  (77) 
1.212840156747644

>  <substructure_overlap_check>  (77) 
True

>  <energy_ratio_check>  (77) 
True

>  <const_energy/unconst_energy>  (77) 
3.015563410414547

>  <sucos>  (77) 
0.5257282135500077

>  <interactions>  (77) 
Hydrophobic_PRO-107,Hydrophobic_TYR-90,Hydrophobic_HIS-21,Hydrophobic_TYR-89,HBDonor_SER-125

>  <total_num_ints>  (77) 
5

>  <total_num_ints_nonhyd>  (77) 
1

>  <num_uniq_frag_ints>  (77) 
1

>  <num_repl_uniq_ints>  (77) 
1

>  <num_uniq_ints_lost>  (77) 
0

>  <num_new_uniq_ints>  (77) 
4

>  <int_check>  (77) 
True

>  <ref_url>  (77) 
https://pubs.acs.org/doi/10.1021/acs.jcim.3c00276?fig=tgr1&ref=pdf

>  <submitter_name>  (77) 
Steph Wills

>  <submitter_institution>  (77) 
University of Oxford

>  <submitter_email>  (77) 
stephanie.wills@balliol.ox.ac.uk

>  <generation_date>  (77) 
2023-11-23

>  <method>  (77) 
FragNetv2

>  <original SMILES>  (77) 
CC(C)C(C)C(=O)Nc1ccc(Cl)nc1C(N)=O

>  <original_name>  (77) 
x0310_0A-x0556_0A_1272-14_B2L

>  <ref_mols>  (77) 
x0310_0A,x0556_0A

>  <ref_pdb>  (77) 
x0310_0A

>  <rationale>  (77) 
FragNet: 2 rounds bioisosteric merging (with change in linker) incl CC(C)C(C)C(=O)N[Xe] replacing N#CCC(=O)N[Xe] and [Xe]c1ccccn1 replacing [Xe]n1cccn1

$$$$
x0556_0A-x0310_0A_24331_B1X_rgrp-1
     RDKit          3D

 13 13  0  0  0  0  0  0  0  0999 V2000
    6.4100   10.8360   26.0290 C   0  0  0  0  0  0  0  0  0  0  0  0
    7.5560   10.9930   25.0760 C   0  0  0  0  0  0  0  0  0  0  0  0
    8.2510    9.9230   24.6960 N   0  0  0  0  0  0  0  0  0  0  0  0
    9.1840   10.4080   23.8610 N   0  0  0  0  0  0  0  0  0  0  0  0
    9.1130   11.7640   23.6850 C   0  0  0  0  0  0  0  0  0  0  0  0
    9.9550   12.4690   22.8830 N   0  0  0  0  0  0  0  0  0  0  0  0
   10.8340   13.4090   23.3960 C   0  0  0  0  0  0  0  0  0  0  0  0
   10.8330   13.7930   24.5660 O   0  0  0  0  0  0  0  0  0  0  0  0
   11.7140   13.8760   22.4280 C   0  0  0  0  0  0  0  0  0  0  0  0
   12.5280   15.0420   23.0440 C   0  0  0  0  0  0  0  0  0  0  0  0
   10.9230   14.4640   21.2460 C   0  0  0  0  0  0  0  0  0  0  0  0
    8.0470   12.1870   24.4690 C   0  0  0  0  0  0  0  0  0  0  0  0
    7.5050   13.6040   24.6530 C   0  0  0  0  0  0  0  0  0  0  0  0
  1  2  1  0
  2  3  2  0
  3  4  1  0
  4  5  1  0
  5  6  1  0
  6  7  1  0
  7  8  2  0
  7  9  1  0
  9 10  1  0
  9 11  1  0
  5 12  2  0
 12 13  1  0
 12  2  1  0
A    1
 C1 
A    2
 C2 
A    3
 N1 
A    4
 N2 
A    5
 C3 
A    6
 N3 
A    7
 C4 
A    8
 O1 
A    9
 C5 
A   10
 C6 
A   11
 C7 
A   12
 C8 
A   13
 C9 
M  END
>  <similarity>  (78) 
1.0

>  <smiles>  (78) 
Cc1n[nH]c(NC(=O)C(C)C)c1C

>  <cmpd_id>  (78) 
ENAMINE:Z872990488,CHEMSPACE-BB:CSMB00011553688

>  <used_subnode>  (78) 
c1cn[nH]c1

>  <used_synthon>  (78) 
CC(C)C(=O)N[Xe]

>  <ref_subnode>  (78) 
c1cn[nH]c1

>  <ref_synthon>  (78) 
N#CCC(=O)N[Xe]

>  <fragmentA>  (78) 
x0556_0A

>  <fragmentB>  (78) 
x0310_0A

>  <HA>  (78) 
13

>  <HBD>  (78) 
2

>  <HBA>  (78) 
2

>  <MW>  (78) 
181.1215121

>  <TPSA>  (78) 
57.78

>  <LogP>  (78) 
1.6210399999999998

>  <RBs>  (78) 
2

>  <G_bound>  (78) 
-9.441365124030963

>  <G_unbound>  (78) 
0.19927255080154754

>  <deltaG>  (78) 
-9.64063767483251

>  <comRMSD>  (78) 
0.24530881103680163

>  <substructure_overlap_check>  (78) 
True

>  <energy_ratio_check>  (78) 
True

>  <const_energy/unconst_energy>  (78) 
1.9068897129661166

>  <sucos>  (78) 
0.5264350768543117

>  <interactions>  (78) 
Hydrophobic_PRO-107,Hydrophobic_HIS-21,Hydrophobic_TYR-89,HBDonor_SER-125,Hydrophobic_TYR-90

>  <total_num_ints>  (78) 
5

>  <total_num_ints_nonhyd>  (78) 
1

>  <num_uniq_frag_ints>  (78) 
1

>  <num_repl_uniq_ints>  (78) 
1

>  <num_uniq_ints_lost>  (78) 
0

>  <num_new_uniq_ints>  (78) 
4

>  <int_check>  (78) 
True

>  <ref_url>  (78) 
https://pubs.acs.org/doi/10.1021/acs.jcim.3c00276?fig=tgr1&ref=pdf

>  <submitter_name>  (78) 
Steph Wills

>  <submitter_institution>  (78) 
University of Oxford

>  <submitter_email>  (78) 
stephanie.wills@balliol.ox.ac.uk

>  <generation_date>  (78) 
2023-11-23

>  <method>  (78) 
FragNetv2

>  <original SMILES>  (78) 
Cc1n[nH]c(NC(=O)C(C)C)c1C

>  <original_name>  (78) 
x0556_0A-x0310_0A_24331_B1X_rgrp-1

>  <ref_mols>  (78) 
x0556_0A,x0310_0A

>  <ref_pdb>  (78) 
x0310_0A

>  <rationale>  (78) 
FragNet: 1 round bioisosteric merging incl c1cn[nH]c1 and CC(C)C(=O)N[Xe] replacing N#CCC(=O)N[Xe]

$$$$
x0556_0A-x0310_0A_30129_B1X
     RDKit          3D

 19 19  0  0  0  0  0  0  0  0999 V2000
   11.9360   13.6320   22.7120 C   0  0  0  0  0  0  0  0  0  0  0  0
   10.8010   13.2830   23.6090 C   0  0  0  0  0  0  0  0  0  0  0  0
   10.9220   13.8550   24.9070 O   0  0  0  0  0  0  0  0  0  0  0  0
    9.7490   12.4470   23.0630 N   0  0  0  0  0  0  0  0  0  0  0  0
    8.8780   11.7630   23.8920 C   0  0  0  0  0  0  0  0  0  0  0  0
    8.8820   10.4120   24.1260 N   0  0  0  0  0  0  0  0  0  0  0  0
    7.9170   10.0080   24.9820 N   0  0  0  0  0  0  0  0  0  0  0  0
    7.2530   11.1320   25.3260 C   0  0  0  0  0  0  0  0  0  0  0  0
    6.2040   11.1280   26.1790 C   0  0  0  0  0  0  0  0  0  0  0  0
    5.4160   12.0610   26.1750 O   0  0  0  0  0  0  0  0  0  0  0  0
    5.9790   10.1020   27.0770 N   0  0  0  0  0  0  0  0  0  0  0  0
    4.9500   10.2700   28.0860 C   0  0  0  0  0  0  0  0  0  0  0  0
    5.2340    9.5110   29.3770 C   0  0  0  0  0  0  0  0  0  0  0  0
    6.3880   10.1510   29.8680 C   0  0  0  0  0  0  0  0  0  0  0  0
    7.1820   10.0550   31.1560 C   0  0  0  0  0  0  0  0  0  0  0  0
    8.4280   10.8980   31.4030 C   0  0  0  0  0  0  0  0  0  0  0  0
    6.6950    9.0500   32.2530 C   0  0  0  0  0  0  0  0  0  0  0  0
    7.8380   12.2340   24.6530 C   0  0  0  0  0  0  0  0  0  0  0  0
    7.3130   14.0040   24.7640 Br  0  0  0  0  0  0  0  0  0  0  0  0
  1  2  1  0
  2  3  2  0
  2  4  1  0
  4  5  1  0
  5  6  1  0
  6  7  1  0
  7  8  2  0
  8  9  1  0
  9 10  2  0
  9 11  1  0
 11 12  1  0
 12 13  1  0
 13 14  1  0
 14 15  2  3
 15 16  1  0
 15 17  1  0
  8 18  1  0
 18 19  1  0
 18  5  2  0
A    1
 C1 
A    2
 C2 
A    3
 O1 
A    4
 N1 
A    5
 C3 
A    6
 N2 
A    7
 N3 
A    8
 C4 
A    9
 C5 
A   10
 O2 
A   11
 N4 
A   12
 C6 
A   13
 C7 
A   14
 C8 
A   15
 C9 
A   16
 C10
A   17
 C11
A   18
 C12
A   19
BR1 
M  END
>  <similarity>  (79) 
1.0

>  <smiles>  (79) 
CC(=O)Nc1[nH]nc(C(=O)NCCC=C(C)C)c1Br

>  <cmpd_id>  (79) 
ENAMINE:Z4320780129

>  <used_subnode>  (79) 
c1cn[nH]c1

>  <used_synthon>  (79) 
CC(=O)N[Xe]

>  <ref_subnode>  (79) 
c1cn[nH]c1

>  <ref_synthon>  (79) 
N#CCC(=O)N[Xe]

>  <fragmentA>  (79) 
x0556_0A

>  <fragmentB>  (79) 
x0310_0A

>  <HA>  (79) 
19

>  <HBD>  (79) 
3

>  <HBA>  (79) 
3

>  <MW>  (79) 
328.053487884

>  <TPSA>  (79) 
86.88

>  <LogP>  (79) 
2.2166999999999994

>  <RBs>  (79) 
5

>  <G_bound>  (79) 
-6.51019643643789

>  <G_unbound>  (79) 
0.8749410921468538

>  <deltaG>  (79) 
-7.385137528584743

>  <comRMSD>  (79) 
0.8467956451489977

>  <UFFGibbs>  (79) 
98.62766514403162

>  <strain_per_HA>  (79) 
5.190929744422717

>  <substructure_overlap_check>  (79) 
True

>  <energy_ratio_check>  (79) 
True

>  <const_energy/unconst_energy>  (79) 
1.057902622245861

>  <sucos>  (79) 
0.5266271290555856

>  <interactions>  (79) 
Hydrophobic_HIS-21,HBDonor_SER-105,Hydrophobic_PRO-107,Hydrophobic_GLU-106

>  <total_num_ints>  (79) 
4

>  <total_num_ints_nonhyd>  (79) 
1

>  <num_uniq_frag_ints>  (79) 
1

>  <num_repl_uniq_ints>  (79) 
1

>  <num_uniq_ints_lost>  (79) 
0

>  <num_new_uniq_ints>  (79) 
3

>  <int_check>  (79) 
True

>  <ref_url>  (79) 
https://pubs.acs.org/doi/10.1021/acs.jcim.3c00276?fig=tgr1&ref=pdf

>  <submitter_name>  (79) 
Steph Wills

>  <submitter_institution>  (79) 
University of Oxford

>  <submitter_email>  (79) 
stephanie.wills@balliol.ox.ac.uk

>  <generation_date>  (79) 
2023-11-23

>  <method>  (79) 
FragNetv2

>  <original SMILES>  (79) 
CC(=O)Nc1[nH]nc(C(=O)NCCC=C(C)C)c1Br

>  <original_name>  (79) 
x0556_0A-x0310_0A_30129_B1X

>  <ref_mols>  (79) 
x0556_0A,x0310_0A

>  <ref_pdb>  (79) 
x0310_0A

>  <rationale>  (79) 
FragNet: 1 round bioisosteric merging incl c1cn[nH]c1 and CC(=O)N[Xe] replacing N#CCC(=O)N[Xe]

$$$$
x0310_0A-x0556_0A_790_B1X_rgrp-0
     RDKit          3D

 22 23  0  0  0  0  0  0  0  0999 V2000
    6.0740   10.2460   26.2800 C   0  0  0  0  0  0  0  0  0  0  0  0
    7.1940   10.6630   25.3780 C   0  0  0  0  0  0  0  0  0  0  0  0
    7.3640   12.0060   25.1800 C   0  0  0  0  0  0  0  0  0  0  0  0
    8.3890   12.4280   24.3630 C   0  0  0  0  0  0  0  0  0  0  0  0
    9.2350   11.5120   23.7490 C   0  0  0  0  0  0  0  0  0  0  0  0
   10.2340   12.1010   22.9800 N   0  0  0  0  0  0  0  0  0  0  0  0
   10.8310   13.2430   23.4340 C   0  0  0  0  0  0  0  0  0  0  0  0
   10.3830   13.8950   24.3810 O   0  0  0  0  0  0  0  0  0  0  0  0
   12.0970   13.7350   22.7950 C   0  0  2  0  0  0  0  0  0  0  0  0
   12.6480   14.5800   23.8210 C   0  0  0  0  0  0  0  0  0  0  0  0
   13.0280   15.1510   24.7300 N   0  0  0  0  0  0  0  0  0  0  0  0
   11.8610   14.3480   21.4520 C   0  0  0  0  0  0  0  0  0  0  0  0
   12.7470   14.3810   20.4900 N   0  0  0  0  0  0  0  0  0  0  0  0
   12.1950   14.9760   19.3820 C   0  0  0  0  0  0  0  0  0  0  0  0
   10.9040   15.4100   19.4790 C   0  0  0  0  0  0  0  0  0  0  0  0
   10.0320   16.0640   18.4320 C   0  0  0  0  0  0  0  0  0  0  0  0
    9.2490   14.8490   18.1150 C   0  0  0  0  0  0  0  0  0  0  0  0
    8.9990   17.1120   18.8700 C   0  0  0  0  0  0  0  0  0  0  0  0
   10.7270   16.5650   17.1530 C   0  0  0  0  0  0  0  0  0  0  0  0
   10.3430   15.0480   21.0580 S   0  0  0  0  0  0  0  0  0  0  0  0
    9.0010   10.1700   23.9850 C   0  0  0  0  0  0  0  0  0  0  0  0
    7.9960    9.7330   24.7900 N   0  0  0  0  0  0  0  0  0  0  0  0
  1  2  1  0
  2  3  2  0
  3  4  1  0
  4  5  2  0
  5  6  1  0
  6  7  1  0
  7  8  2  0
  7  9  1  0
  9 10  1  1
 10 11  3  0
  9 12  1  0
 12 13  2  0
 13 14  1  0
 14 15  2  0
 15 16  1  0
 16 17  1  0
 16 18  1  0
 16 19  1  0
 15 20  1  0
  5 21  1  0
 21 22  2  0
 22  2  1  0
 20 12  1  0
A    1
 C1 
A    2
 C2 
A    3
 C3 
A    4
 C4 
A    5
 C5 
A    6
 N1 
A    7
 C6 
A    8
 O1 
A    9
 C7 
A   10
 C8 
A   11
 N2 
A   12
 C9 
A   13
 N3 
A   14
 C10
A   15
 C11
A   16
 C12
A   17
 C13
A   18
 C14
A   19
 C15
A   20
 S1 
A   21
 C16
A   22
 N4 
M  END
>  <similarity>  (80) 
1.0

>  <smiles>  (80) 
Cc1ccc(NC(=O)C(C#N)c2ncc(C(C)(C)C)s2)cn1

>  <cmpd_id>  (80) 
ENAMINE:Z2367101733

>  <used_subnode>  (80) 
N#CCC(N)=O

>  <used_synthon>  (80) 
[Xe]c1cccnc1

>  <ref_subnode>  (80) 
N#CCC(N)=O

>  <ref_synthon>  (80) 
[Xe]n1cccn1

>  <fragmentA>  (80) 
x0310_0A

>  <fragmentB>  (80) 
x0556_0A

>  <HA>  (80) 
22

>  <HBD>  (80) 
1

>  <HBA>  (80) 
5

>  <MW>  (80) 
314.120132196

>  <TPSA>  (80) 
78.67

>  <LogP>  (80) 
3.3899000000000017

>  <RBs>  (80) 
3

>  <G_bound>  (80) 
-10.726629398101025

>  <G_unbound>  (80) 
1.056445671753969

>  <deltaG>  (80) 
-11.783075069854995

>  <comRMSD>  (80) 
0.20880341103678443

>  <substructure_overlap_check>  (80) 
True

>  <energy_ratio_check>  (80) 
True

>  <const_energy/unconst_energy>  (80) 
2.657025153622026

>  <sucos>  (80) 
0.5267815584995391

>  <interactions>  (80) 
Hydrophobic_PRO-107,Hydrophobic_HIS-21,HBDonor_SER-125,Hydrophobic_VAL-84,Hydrophobic_GLN-95,Hydrophobic_ASP-39,Hydrophobic_TYR-90

>  <total_num_ints>  (80) 
7

>  <total_num_ints_nonhyd>  (80) 
1

>  <num_uniq_frag_ints>  (80) 
1

>  <num_repl_uniq_ints>  (80) 
1

>  <num_uniq_ints_lost>  (80) 
0

>  <num_new_uniq_ints>  (80) 
6

>  <int_check>  (80) 
True

>  <ref_url>  (80) 
https://pubs.acs.org/doi/10.1021/acs.jcim.3c00276?fig=tgr1&ref=pdf

>  <submitter_name>  (80) 
Steph Wills

>  <submitter_institution>  (80) 
University of Oxford

>  <submitter_email>  (80) 
stephanie.wills@balliol.ox.ac.uk

>  <generation_date>  (80) 
2023-11-23

>  <method>  (80) 
FragNetv2

>  <original SMILES>  (80) 
Cc1ccc(NC(=O)C(C#N)c2ncc(C(C)(C)C)s2)cn1

>  <original_name>  (80) 
x0310_0A-x0556_0A_790_B1X_rgrp-0

>  <ref_mols>  (80) 
x0310_0A,x0556_0A

>  <ref_pdb>  (80) 
x0310_0A

>  <rationale>  (80) 
FragNet: 1 round bioisosteric merging incl N#CCC(N)=O and [Xe]c1cccnc1 replacing [Xe]n1cccn1

$$$$
x0556_0A-x0310_0A_20067_B1X
     RDKit          3D

 19 19  0  0  0  0  0  0  0  0999 V2000
    9.3520    9.3680   23.3130 C   0  0  0  0  0  0  0  0  0  0  0  0
    8.7310   10.4590   24.0010 N   0  0  0  0  0  0  0  0  0  0  0  0
    7.7760   10.2460   24.9910 N   0  0  0  0  0  0  0  0  0  0  0  0
    7.4220   11.4990   25.3840 C   0  0  0  0  0  0  0  0  0  0  0  0
    6.3430   11.6730   26.4950 C   0  0  0  0  0  0  0  0  0  0  0  0
    6.7940   12.3540   27.8010 C   0  0  0  0  0  0  0  0  0  0  0  0
    5.6870   10.3220   26.8180 C   0  0  0  0  0  0  0  0  0  0  0  0
    5.3050   12.6440   25.9410 C   0  0  0  0  0  0  0  0  0  0  0  0
    8.1490   12.4450   24.6510 C   0  0  0  0  0  0  0  0  0  0  0  0
    8.9750   11.7690   23.7840 C   0  0  0  0  0  0  0  0  0  0  0  0
    9.8560   12.5130   22.8990 N   0  0  0  0  0  0  0  0  0  0  0  0
   10.7650   13.3680   23.3830 C   0  0  0  0  0  0  0  0  0  0  0  0
   10.5630   14.0080   24.4110 O   0  0  0  0  0  0  0  0  0  0  0  0
   12.0850   13.5110   22.6550 C   0  0  0  0  0  0  0  0  0  0  0  0
   12.0610   13.9970   21.1970 C   0  0  0  0  0  0  0  0  0  0  0  0
   12.8070   12.1820   22.7980 C   0  0  0  0  0  0  0  0  0  0  0  0
   12.7660   14.6130   23.3780 C   0  0  0  0  0  0  0  0  0  0  0  0
   12.1740   15.9430   23.2000 C   0  0  0  0  0  0  0  0  0  0  0  0
   11.9150   16.4470   21.9740 N   0  0  0  0  0  0  0  0  0  0  0  0
  1  2  1  0
  2  3  1  0
  3  4  2  0
  4  5  1  0
  5  6  1  0
  5  7  1  0
  5  8  1  0
  4  9  1  0
  9 10  2  0
 10 11  1  0
 11 12  1  0
 12 13  2  0
 12 14  1  0
 14 15  1  0
 14 16  1  0
 14 17  1  0
 17 18  1  0
 18 19  3  0
 10  2  1  0
A    1
 C1 
A    2
 N1 
A    3
 N2 
A    4
 C2 
A    5
 C3 
A    6
 C4 
A    7
 C5 
A    8
 C6 
A    9
 C7 
A   10
 C8 
A   11
 N3 
A   12
 C9 
A   13
 O1 
A   14
 C10
A   15
 C11
A   16
 C12
A   17
 C13
A   18
 C14
A   19
 N4 
M  END
>  <similarity>  (81) 
1.0

>  <smiles>  (81) 
Cn1nc(C(C)(C)C)cc1NC(=O)C(C)(C)CC#N

>  <cmpd_id>  (81) 
ENAMINE:Z3471517783

>  <used_subnode>  (81) 
c1cn[nH]c1

>  <used_synthon>  (81) 
CC(C)(CC#N)C(=O)N[Xe]

>  <ref_subnode>  (81) 
c1cn[nH]c1

>  <ref_synthon>  (81) 
N#CCC(=O)N[Xe]

>  <fragmentA>  (81) 
x0556_0A

>  <fragmentB>  (81) 
x0310_0A

>  <HA>  (81) 
19

>  <HBD>  (81) 
1

>  <HBA>  (81) 
4

>  <MW>  (81) 
262.179361324

>  <TPSA>  (81) 
70.71000000000001

>  <LogP>  (81) 
2.595980000000001

>  <RBs>  (81) 
3

>  <G_bound>  (81) 
-10.044979399166587

>  <G_unbound>  (81) 
-0.09156176766036603

>  <deltaG>  (81) 
-9.953417631506221

>  <comRMSD>  (81) 
0.5411040372579007

>  <UFFGibbs>  (81) 
299.00549563366775

>  <strain_per_HA>  (81) 
15.737131349140407

>  <substructure_overlap_check>  (81) 
True

>  <energy_ratio_check>  (81) 
True

>  <const_energy/unconst_energy>  (81) 
0.9644940929920268

>  <sucos>  (81) 
0.5274388424777353

>  <interactions>  (81) 
HBDonor_SER-125,Hydrophobic_TYR-90,Hydrophobic_HIS-21,Hydrophobic_PRO-107,Hydrophobic_CYS-110,Hydrophobic_TYR-89

>  <total_num_ints>  (81) 
6

>  <total_num_ints_nonhyd>  (81) 
1

>  <num_uniq_frag_ints>  (81) 
1

>  <num_repl_uniq_ints>  (81) 
1

>  <num_uniq_ints_lost>  (81) 
0

>  <num_new_uniq_ints>  (81) 
5

>  <int_check>  (81) 
True

>  <ref_url>  (81) 
https://pubs.acs.org/doi/10.1021/acs.jcim.3c00276?fig=tgr1&ref=pdf

>  <submitter_name>  (81) 
Steph Wills

>  <submitter_institution>  (81) 
University of Oxford

>  <submitter_email>  (81) 
stephanie.wills@balliol.ox.ac.uk

>  <generation_date>  (81) 
2023-11-23

>  <method>  (81) 
FragNetv2

>  <original SMILES>  (81) 
Cn1nc(C(C)(C)C)cc1NC(=O)C(C)(C)CC#N

>  <original_name>  (81) 
x0556_0A-x0310_0A_20067_B1X

>  <ref_mols>  (81) 
x0556_0A,x0310_0A

>  <ref_pdb>  (81) 
x0310_0A

>  <rationale>  (81) 
FragNet: 1 round bioisosteric merging incl c1cn[nH]c1 and CC(C)(CC#N)C(=O)N[Xe] replacing N#CCC(=O)N[Xe]

$$$$
x0556_0A-x0310_0A_55472_B1X_rgrp-0
     RDKit          3D

 21 22  0  0  0  0  0  0  0  0999 V2000
   11.2020   14.7710   18.7880 C   0  0  0  0  0  0  0  0  0  0  0  0
   11.9490   14.3800   20.0430 C   0  0  0  0  0  0  0  0  0  0  0  0
   11.4880   14.9970   21.1750 C   0  0  0  0  0  0  0  0  0  0  0  0
   12.4310   15.6790   22.1170 C   0  0  0  0  0  0  0  0  0  0  0  0
   12.6720   14.8860   23.3100 C   0  0  0  0  0  0  0  0  0  0  0  0
   12.1980   13.4760   23.1750 C   0  0  0  0  0  0  0  0  0  0  0  0
   10.8080   13.3480   23.7930 C   0  0  0  0  0  0  0  0  0  0  0  0
   10.4930   13.8770   24.8550 O   0  0  0  0  0  0  0  0  0  0  0  0
    9.9300   12.5790   23.0710 N   0  0  0  0  0  0  0  0  0  0  0  0
    9.0150   11.7470   23.8490 C   0  0  0  0  0  0  0  0  0  0  0  0
    9.1210   10.4010   23.8880 N   0  0  0  0  0  0  0  0  0  0  0  0
    8.1960    9.8580   24.6650 N   0  0  0  0  0  0  0  0  0  0  0  0
    7.3990   10.9080   25.1970 C   0  0  0  0  0  0  0  0  0  0  0  0
    6.2550   10.6760   26.1260 C   0  0  0  0  0  0  0  0  0  0  0  0
    7.9230   12.1080   24.6690 C   0  0  0  0  0  0  0  0  0  0  0  0
    7.3270   13.3370   25.0210 C   0  0  0  0  0  0  0  0  0  0  0  0
    6.6500   14.0290   23.9180 C   0  0  0  0  0  0  0  0  0  0  0  0
    6.0470   15.2940   24.3720 C   0  0  0  0  0  0  0  0  0  0  0  0
    6.0870   15.8280   25.6960 C   0  0  0  0  0  0  0  0  0  0  0  0
    6.7690   15.0590   26.6350 C   0  0  0  0  0  0  0  0  0  0  0  0
    7.3710   13.8490   26.3150 C   0  0  0  0  0  0  0  0  0  0  0  0
  1  2  2  3
  2  3  1  0
  3  4  1  0
  4  5  1  0
  5  6  1  0
  6  7  1  0
  7  8  2  0
  7  9  1  0
  9 10  1  0
 10 11  1  0
 11 12  1  0
 12 13  2  0
 13 14  1  0
 13 15  1  0
 15 16  1  0
 16 17  2  0
 17 18  1  0
 18 19  2  0
 19 20  1  0
 20 21  2  0
 15 10  2  0
 21 16  1  0
A    1
 C1 
A    2
 C2 
A    3
 C3 
A    4
 C4 
A    5
 C5 
A    6
 C6 
A    7
 C7 
A    8
 O1 
A    9
 N1 
A   10
 C8 
A   11
 N2 
A   12
 N3 
A   13
 C9 
A   14
 C10
A   15
 C11
A   16
 C12
A   17
 C13
A   18
 C14
A   19
 C15
A   20
 C16
A   21
 C17
M  END
>  <similarity>  (82) 
1.0

>  <smiles>  (82) 
C=CCCCCC(=O)Nc1[nH]nc(C)c1-c1ccccc1

>  <cmpd_id>  (82) 
ENAMINE:Z4175952963

>  <used_subnode>  (82) 
c1cn[nH]c1

>  <used_synthon>  (82) 
C=CCCCCC(=O)N[Xe]

>  <ref_subnode>  (82) 
c1cn[nH]c1

>  <ref_synthon>  (82) 
N#CCC(=O)N[Xe]

>  <fragmentA>  (82) 
x0556_0A

>  <fragmentB>  (82) 
x0310_0A

>  <HA>  (82) 
21

>  <HBD>  (82) 
2

>  <HBA>  (82) 
2

>  <MW>  (82) 
283.168462292

>  <TPSA>  (82) 
57.78

>  <LogP>  (82) 
4.070020000000002

>  <RBs>  (82) 
7

>  <G_bound>  (82) 
-7.793494123055189

>  <G_unbound>  (82) 
0.45142207615908764

>  <deltaG>  (82) 
-8.244916199214277

>  <comRMSD>  (82) 
0.3382963571422963

>  <substructure_overlap_check>  (82) 
True

>  <energy_ratio_check>  (82) 
True

>  <const_energy/unconst_energy>  (82) 
3.614669583254147

>  <sucos>  (82) 
0.5274479533644519

>  <interactions>  (82) 
Hydrophobic_PRO-107,Hydrophobic_HIS-21,Hydrophobic_TYR-89,HBDonor_SER-125,Hydrophobic_ASP-39,Hydrophobic_TYR-90,Hydrophobic_THR-126

>  <total_num_ints>  (82) 
7

>  <total_num_ints_nonhyd>  (82) 
1

>  <num_uniq_frag_ints>  (82) 
1

>  <num_repl_uniq_ints>  (82) 
1

>  <num_uniq_ints_lost>  (82) 
0

>  <num_new_uniq_ints>  (82) 
6

>  <int_check>  (82) 
True

>  <ref_url>  (82) 
https://pubs.acs.org/doi/10.1021/acs.jcim.3c00276?fig=tgr1&ref=pdf

>  <submitter_name>  (82) 
Steph Wills

>  <submitter_institution>  (82) 
University of Oxford

>  <submitter_email>  (82) 
stephanie.wills@balliol.ox.ac.uk

>  <generation_date>  (82) 
2023-11-23

>  <method>  (82) 
FragNetv2

>  <original SMILES>  (82) 
C=CCCCCC(=O)Nc1[nH]nc(C)c1-c1ccccc1

>  <original_name>  (82) 
x0556_0A-x0310_0A_55472_B1X_rgrp-0

>  <ref_mols>  (82) 
x0556_0A,x0310_0A

>  <ref_pdb>  (82) 
x0310_0A

>  <rationale>  (82) 
FragNet: 1 round bioisosteric merging incl c1cn[nH]c1 and C=CCCCCC(=O)N[Xe] replacing N#CCC(=O)N[Xe]

$$$$
x0556_0A-x0310_0A_36558_B1X
     RDKit          3D

 23 24  0  0  0  0  0  0  0  0999 V2000
   10.6890    8.6890   23.2340 C   0  0  0  0  0  0  0  0  0  0  0  0
    9.3210    9.2450   23.0450 C   0  0  0  0  0  0  0  0  0  0  0  0
    8.7340   10.2500   23.9240 N   0  0  0  0  0  0  0  0  0  0  0  0
    7.8240    9.9150   24.8710 N   0  0  0  0  0  0  0  0  0  0  0  0
    7.4390   11.0600   25.4850 C   0  0  0  0  0  0  0  0  0  0  0  0
    6.4310   11.1030   26.5950 C   0  0  0  0  0  0  0  0  0  0  0  0
    6.5450   12.3180   27.5350 C   0  0  0  0  0  0  0  0  0  0  0  0
    5.6810   12.5060   28.6230 C   0  0  0  0  0  0  0  0  0  0  0  0
    4.6700   11.5050   28.8260 C   0  0  0  0  0  0  0  0  0  0  0  0
    4.5370   10.4060   28.0050 C   0  0  0  0  0  0  0  0  0  0  0  0
    5.4440   10.1810   26.8400 C   0  0  0  0  0  0  0  0  0  0  0  0
    8.1170   12.1650   24.9360 C   0  0  0  0  0  0  0  0  0  0  0  0
    9.0100   11.5670   23.8660 C   0  0  0  0  0  0  0  0  0  0  0  0
    9.8960   12.1240   23.0110 N   0  0  0  0  0  0  0  0  0  0  0  0
   10.7630   13.1540   23.4380 C   0  0  0  0  0  0  0  0  0  0  0  0
   10.7850   13.6190   24.5680 O   0  0  0  0  0  0  0  0  0  0  0  0
   11.6660   13.6610   22.3390 C   0  0  0  0  0  0  0  0  0  0  0  0
   12.5420   14.8030   22.8240 C   0  0  0  0  0  0  0  0  0  0  0  0
   11.9170   15.6280   23.6870 F   0  0  0  0  0  0  0  0  0  0  0  0
   13.6580   14.3950   23.4690 F   0  0  0  0  0  0  0  0  0  0  0  0
   12.8730   15.5860   21.5850 C   0  0  0  0  0  0  0  0  0  0  0  0
   12.4920   14.9230   20.4610 F   0  0  0  0  0  0  0  0  0  0  0  0
   12.1510   16.7280   21.6430 F   0  0  0  0  0  0  0  0  0  0  0  0
  1  2  1  0
  2  3  1  0
  3  4  1  0
  4  5  2  0
  5  6  1  0
  6  7  2  0
  7  8  1  0
  8  9  2  0
  9 10  1  0
 10 11  2  0
  5 12  1  0
 12 13  2  0
 13 14  1  0
 14 15  1  0
 15 16  2  0
 15 17  1  0
 17 18  1  0
 18 19  1  0
 18 20  1  0
 18 21  1  0
 21 22  1  0
 21 23  1  0
 13  3  1  0
 11  6  1  0
A    1
 C1 
A    2
 C2 
A    3
 N1 
A    4
 N2 
A    5
 C3 
A    6
 C4 
A    7
 C5 
A    8
 C6 
A    9
 C7 
A   10
 C8 
A   11
 C9 
A   12
 C10
A   13
 C11
A   14
 N3 
A   15
 C12
A   16
 O1 
A   17
 C13
A   18
 C14
A   19
 F1 
A   20
 F2 
A   21
 C15
A   22
 F3 
A   23
 F4 
M  END
>  <similarity>  (83) 
1.0

>  <smiles>  (83) 
CCn1nc(-c2ccccc2)cc1NC(=O)CC(F)(F)C(F)F

>  <cmpd_id>  (83) 
ENAMINE:Z4246253494

>  <used_subnode>  (83) 
c1cn[nH]c1

>  <used_synthon>  (83) 
O=C(CC(F)(F)C(F)F)N[Xe]

>  <ref_subnode>  (83) 
c1cn[nH]c1

>  <ref_synthon>  (83) 
N#CCC(=O)N[Xe]

>  <fragmentA>  (83) 
x0556_0A

>  <fragmentB>  (83) 
x0310_0A

>  <HA>  (83) 
23

>  <HBD>  (83) 
1

>  <HBA>  (83) 
3

>  <MW>  (83) 
329.11512498

>  <TPSA>  (83) 
46.92

>  <LogP>  (83) 
3.799000000000002

>  <RBs>  (83) 
6

>  <G_bound>  (83) 
-4.316806151885122

>  <G_unbound>  (83) 
0.6180178599595982

>  <deltaG>  (83) 
-4.93482401184472

>  <comRMSD>  (83) 
0.434714726778389

>  <UFFGibbs>  (83) 
104.31608664818324

>  <strain_per_HA>  (83) 
4.53548202818188

>  <substructure_overlap_check>  (83) 
True

>  <energy_ratio_check>  (83) 
True

>  <const_energy/unconst_energy>  (83) 
1.0034029436698761

>  <sucos>  (83) 
0.5278584012874444

>  <interactions>  (83) 
HBDonor_SER-125,Hydrophobic_HIS-21,Hydrophobic_PRO-107,Hydrophobic_CYS-110,Hydrophobic_VAL-124,Hydrophobic_ASP-109

>  <total_num_ints>  (83) 
6

>  <total_num_ints_nonhyd>  (83) 
1

>  <num_uniq_frag_ints>  (83) 
1

>  <num_repl_uniq_ints>  (83) 
1

>  <num_uniq_ints_lost>  (83) 
0

>  <num_new_uniq_ints>  (83) 
5

>  <int_check>  (83) 
True

>  <ref_url>  (83) 
https://pubs.acs.org/doi/10.1021/acs.jcim.3c00276?fig=tgr1&ref=pdf

>  <submitter_name>  (83) 
Steph Wills

>  <submitter_institution>  (83) 
University of Oxford

>  <submitter_email>  (83) 
stephanie.wills@balliol.ox.ac.uk

>  <generation_date>  (83) 
2023-11-23

>  <method>  (83) 
FragNetv2

>  <original SMILES>  (83) 
CCn1nc(-c2ccccc2)cc1NC(=O)CC(F)(F)C(F)F

>  <original_name>  (83) 
x0556_0A-x0310_0A_36558_B1X

>  <ref_mols>  (83) 
x0556_0A,x0310_0A

>  <ref_pdb>  (83) 
x0310_0A

>  <rationale>  (83) 
FragNet: 1 round bioisosteric merging incl c1cn[nH]c1 and O=C(CC(F)(F)C(F)F)N[Xe] replacing N#CCC(=O)N[Xe]

$$$$
x0556_0A-x0310_0A_2243_B1X
     RDKit          3D

 19 19  0  0  0  0  0  0  0  0999 V2000
    7.5000   13.3510   25.0160 C   0  0  0  0  0  0  0  0  0  0  0  0
    7.8970   11.9070   24.7660 C   0  0  0  0  0  0  0  0  0  0  0  0
    9.0080   11.5990   23.7970 C   0  0  0  0  0  0  0  0  0  0  0  0
    9.7890   12.4720   23.0600 N   0  0  0  0  0  0  0  0  0  0  0  0
   10.6400   13.3190   23.7410 C   0  0  0  0  0  0  0  0  0  0  0  0
   10.3650   13.8450   24.8070 O   0  0  0  0  0  0  0  0  0  0  0  0
   11.9970   13.5870   23.1220 C   0  0  1  0  0  0  0  0  0  0  0  0
   12.5950   14.8450   23.4160 C   0  0  0  0  0  0  0  0  0  0  0  0
   13.1140   12.2720   23.7350 S   0  0  0  0  0  0  0  0  0  0  0  0
   14.7080   12.7390   23.0280 C   0  0  0  0  0  0  0  0  0  0  0  0
   15.5160   13.2890   23.9700 C   0  0  0  0  0  0  0  0  0  0  0  0
   14.3570   13.6740   21.9030 C   0  0  0  0  0  0  0  0  0  0  0  0
    9.0070   10.2190   23.8850 C   0  0  0  0  0  0  0  0  0  0  0  0
    8.0770    9.7620   24.7480 N   0  0  0  0  0  0  0  0  0  0  0  0
    7.3930   10.8070   25.2950 N   0  0  0  0  0  0  0  0  0  0  0  0
    6.3220   10.5980   26.2760 C   0  0  0  0  0  0  0  0  0  0  0  0
    5.8920   11.8550   27.0430 C   0  0  0  0  0  0  0  0  0  0  0  0
    4.9660   12.5560   26.3350 F   0  0  0  0  0  0  0  0  0  0  0  0
    6.9380   12.6910   27.2710 F   0  0  0  0  0  0  0  0  0  0  0  0
  1  2  1  0
  2  3  2  0
  3  4  1  0
  4  5  1  0
  5  6  2  0
  5  7  1  0
  7  8  1  1
  7  9  1  0
  9 10  1  0
 10 11  1  0
 10 12  1  0
  3 13  1  0
 13 14  2  0
 14 15  1  0
 15 16  1  0
 16 17  1  0
 17 18  1  0
 17 19  1  0
 15  2  1  0
A    1
 C1 
A    2
 C2 
A    3
 C3 
A    4
 N1 
A    5
 C4 
A    6
 O1 
A    7
 C5 
A    8
 C6 
A    9
 S1 
A   10
 C7 
A   11
 C8 
A   12
 C9 
A   13
 C10
A   14
 N2 
A   15
 N3 
A   16
 C11
A   17
 C12
A   18
 F1 
A   19
 F2 
M  END
>  <similarity>  (84) 
1.0

>  <smiles>  (84) 
Cc1c(NC(=O)C(C)SC(C)C)cnn1CC(F)F

>  <cmpd_id>  (84) 
ENAMINE:Z3644026130

>  <used_subnode>  (84) 
c1cn[nH]c1

>  <used_synthon>  (84) 
CC(C)SC(C)C(=O)N[Xe]

>  <ref_subnode>  (84) 
c1cn[nH]c1

>  <ref_synthon>  (84) 
N#CCC(=O)N[Xe]

>  <fragmentA>  (84) 
x0556_0A

>  <fragmentB>  (84) 
x0310_0A

>  <HA>  (84) 
19

>  <HBD>  (84) 
1

>  <HBA>  (84) 
4

>  <MW>  (84) 
291.121689668

>  <TPSA>  (84) 
46.92

>  <LogP>  (84) 
2.9252200000000013

>  <RBs>  (84) 
6

>  <G_bound>  (84) 
-7.9142711832673704

>  <G_unbound>  (84) 
-0.3669605067287839

>  <deltaG>  (84) 
-7.5473106765385864

>  <comRMSD>  (84) 
1.0087666912492255

>  <UFFGibbs>  (84) 
696.2667356940157

>  <strain_per_HA>  (84) 
36.64561766810609

>  <substructure_overlap_check>  (84) 
True

>  <energy_ratio_check>  (84) 
True

>  <const_energy/unconst_energy>  (84) 
1.1638782341497453

>  <sucos>  (84) 
0.5297521615035871

>  <interactions>  (84) 
HBDonor_SER-125,Hydrophobic_TYR-90,Hydrophobic_HIS-21,Hydrophobic_PRO-107,Hydrophobic_LEU-22,Hydrophobic_CYS-110,Hydrophobic_TYR-89

>  <total_num_ints>  (84) 
7

>  <total_num_ints_nonhyd>  (84) 
1

>  <num_uniq_frag_ints>  (84) 
1

>  <num_repl_uniq_ints>  (84) 
1

>  <num_uniq_ints_lost>  (84) 
0

>  <num_new_uniq_ints>  (84) 
6

>  <int_check>  (84) 
True

>  <ref_url>  (84) 
https://pubs.acs.org/doi/10.1021/acs.jcim.3c00276?fig=tgr1&ref=pdf

>  <submitter_name>  (84) 
Steph Wills

>  <submitter_institution>  (84) 
University of Oxford

>  <submitter_email>  (84) 
stephanie.wills@balliol.ox.ac.uk

>  <generation_date>  (84) 
2023-11-23

>  <method>  (84) 
FragNetv2

>  <original SMILES>  (84) 
Cc1c(NC(=O)C(C)SC(C)C)cnn1CC(F)F

>  <original_name>  (84) 
x0556_0A-x0310_0A_2243_B1X

>  <ref_mols>  (84) 
x0556_0A,x0310_0A

>  <ref_pdb>  (84) 
x0310_0A

>  <rationale>  (84) 
FragNet: 1 round bioisosteric merging incl c1cn[nH]c1 and CC(C)SC(C)C(=O)N[Xe] replacing N#CCC(=O)N[Xe]

$$$$
x0556_0A-x0310_0A_39809_B1X
     RDKit          3D

 16 16  0  0  0  0  0  0  0  0999 V2000
    9.6210   14.3640   21.4100 C   0  0  0  0  0  0  0  0  0  0  0  0
   10.8310   14.1200   22.3000 C   0  0  0  0  0  0  0  0  0  0  0  0
   10.5990   13.1550   23.4190 C   0  0  0  0  0  0  0  0  0  0  0  0
   10.8610   13.4400   24.5830 O   0  0  0  0  0  0  0  0  0  0  0  0
   10.0790   11.9670   23.0390 N   0  0  0  0  0  0  0  0  0  0  0  0
    9.0740   11.3130   23.8670 C   0  0  0  0  0  0  0  0  0  0  0  0
    8.9840    9.9780   24.0030 N   0  0  0  0  0  0  0  0  0  0  0  0
    7.9730    9.7130   24.8330 N   0  0  0  0  0  0  0  0  0  0  0  0
    7.3160   10.8730   25.3100 C   0  0  0  0  0  0  0  0  0  0  0  0
    6.1460   10.6910   26.2690 C   0  0  0  0  0  0  0  0  0  0  0  0
    7.9500   11.9730   24.7410 C   0  0  0  0  0  0  0  0  0  0  0  0
    7.5770   13.6090   24.9660 Cl  0  0  0  0  0  0  0  0  0  0  0  0
   12.1890   14.7280   22.1800 C   0  0  0  0  0  0  0  0  0  0  0  0
   12.0650   16.2150   22.1100 C   0  0  0  0  0  0  0  0  0  0  0  0
   13.0590   14.2950   23.3480 C   0  0  0  0  0  0  0  0  0  0  0  0
   12.8050   14.2060   20.8620 C   0  0  0  0  0  0  0  0  0  0  0  0
  1  2  2  3
  2  3  1  0
  3  4  2  0
  3  5  1  0
  5  6  1  0
  6  7  1  0
  7  8  1  0
  8  9  2  0
  9 10  1  0
  9 11  1  0
 11 12  1  0
  2 13  1  0
 13 14  1  0
 13 15  1  0
 13 16  1  0
 11  6  2  0
A    1
 C1 
A    2
 C2 
A    3
 C3 
A    4
 O1 
A    5
 N1 
A    6
 C4 
A    7
 N2 
A    8
 N3 
A    9
 C5 
A   10
 C6 
A   11
 C7 
A   12
CL1 
A   13
 C8 
A   14
 C9 
A   15
 C10
A   16
 C11
M  END
>  <similarity>  (85) 
1.0

>  <smiles>  (85) 
C=C(C(=O)Nc1[nH]nc(C)c1Cl)C(C)(C)C

>  <cmpd_id>  (85) 
ENAMINE:Z4284664473

>  <used_subnode>  (85) 
c1cn[nH]c1

>  <used_synthon>  (85) 
C=C(C(=O)N[Xe])C(C)(C)C

>  <ref_subnode>  (85) 
c1cn[nH]c1

>  <ref_synthon>  (85) 
N#CCC(=O)N[Xe]

>  <fragmentA>  (85) 
x0556_0A

>  <fragmentB>  (85) 
x0310_0A

>  <HA>  (85) 
16

>  <HBD>  (85) 
2

>  <HBA>  (85) 
2

>  <MW>  (85) 
241.098189812

>  <TPSA>  (85) 
57.78

>  <LogP>  (85) 
2.912320000000001

>  <RBs>  (85) 
2

>  <G_bound>  (85) 
-9.613632337186669

>  <G_unbound>  (85) 
0.3623532592099793

>  <deltaG>  (85) 
-9.975985596396647

>  <comRMSD>  (85) 
0.5717383974057413

>  <UFFGibbs>  (85) 
78.18135880760119

>  <strain_per_HA>  (85) 
4.886334925475074

>  <substructure_overlap_check>  (85) 
True

>  <energy_ratio_check>  (85) 
True

>  <const_energy/unconst_energy>  (85) 
1.0237328737010802

>  <sucos>  (85) 
0.529810186092021

>  <interactions>  (85) 
HBDonor_SER-125,Hydrophobic_TYR-90,Hydrophobic_HIS-21,Hydrophobic_PRO-107,Hydrophobic_TYR-89,Hydrophobic_THR-126

>  <total_num_ints>  (85) 
6

>  <total_num_ints_nonhyd>  (85) 
1

>  <num_uniq_frag_ints>  (85) 
1

>  <num_repl_uniq_ints>  (85) 
1

>  <num_uniq_ints_lost>  (85) 
0

>  <num_new_uniq_ints>  (85) 
5

>  <int_check>  (85) 
True

>  <ref_url>  (85) 
https://pubs.acs.org/doi/10.1021/acs.jcim.3c00276?fig=tgr1&ref=pdf

>  <submitter_name>  (85) 
Steph Wills

>  <submitter_institution>  (85) 
University of Oxford

>  <submitter_email>  (85) 
stephanie.wills@balliol.ox.ac.uk

>  <generation_date>  (85) 
2023-11-23

>  <method>  (85) 
FragNetv2

>  <original SMILES>  (85) 
C=C(C(=O)Nc1[nH]nc(C)c1Cl)C(C)(C)C

>  <original_name>  (85) 
x0556_0A-x0310_0A_39809_B1X

>  <ref_mols>  (85) 
x0556_0A,x0310_0A

>  <ref_pdb>  (85) 
x0310_0A

>  <rationale>  (85) 
FragNet: 1 round bioisosteric merging incl c1cn[nH]c1 and C=C(C(=O)N[Xe])C(C)(C)C replacing N#CCC(=O)N[Xe]

$$$$
x0556_0A-x0310_0A_45895_B1X
     RDKit          3D

 17 18  0  0  0  0  0  0  0  0999 V2000
    5.3790    9.7020   27.6690 C   0  0  0  0  0  0  0  0  0  0  0  0
    6.3540   10.7230   27.4920 O   0  0  0  0  0  0  0  0  0  0  0  0
    6.2720   11.3590   26.2850 C   0  0  0  0  0  0  0  0  0  0  0  0
    5.3090   12.0760   26.0270 O   0  0  0  0  0  0  0  0  0  0  0  0
    7.2670   11.1910   25.3890 C   0  0  0  0  0  0  0  0  0  0  0  0
    7.9940   12.2140   24.6080 C   0  0  0  0  0  0  0  0  0  0  0  0
    9.0110   11.5170   23.7630 C   0  0  0  0  0  0  0  0  0  0  0  0
    9.7740   12.3660   22.9820 N   0  0  0  0  0  0  0  0  0  0  0  0
   10.5810   13.3820   23.6640 C   0  0  0  0  0  0  0  0  0  0  0  0
   10.3950   13.7640   24.8030 O   0  0  0  0  0  0  0  0  0  0  0  0
   11.7080   13.9650   22.8510 C   0  0  0  0  0  0  0  0  0  0  0  0
   12.9860   14.1810   23.5580 C   0  0  0  0  0  0  0  0  0  0  0  0
   11.6090   14.3620   21.4060 C   0  0  0  0  0  0  0  0  0  0  0  0
   12.5960   14.8720   20.6500 C   0  0  0  0  0  0  0  0  0  0  0  0
   11.1290   14.6190   20.0510 C   0  0  0  0  0  0  0  0  0  0  0  0
    8.8590   10.2240   24.0460 N   0  0  0  0  0  0  0  0  0  0  0  0
    7.8380    9.9990   24.9990 N   0  0  0  0  0  0  0  0  0  0  0  0
  1  2  1  0
  2  3  1  0
  3  4  2  0
  3  5  1  0
  5  6  1  0
  6  7  2  0
  7  8  1  0
  8  9  1  0
  9 10  2  0
  9 11  1  0
 11 12  1  0
 11 13  2  3
 13 14  1  0
 14 15  1  0
  7 16  1  0
 16 17  1  0
 17  5  2  0
 15 13  1  0
A    1
 C1 
A    2
 O1 
A    3
 C2 
A    4
 O2 
A    5
 C3 
A    6
 C4 
A    7
 C5 
A    8
 N1 
A    9
 C6 
A   10
 O3 
A   11
 C7 
A   12
 C8 
A   13
 C9 
A   14
 C10
A   15
 C11
A   16
 N2 
A   17
 N3 
M  END
>  <similarity>  (86) 
1.0

>  <smiles>  (86) 
COC(=O)c1cc(NC(=O)C(C)=C2CC2)[nH]n1

>  <cmpd_id>  (86) 
ENAMINE:Z3585555410

>  <used_subnode>  (86) 
c1cn[nH]c1

>  <used_synthon>  (86) 
CC(C(=O)N[Xe])=C1CC1

>  <ref_subnode>  (86) 
c1cn[nH]c1

>  <ref_synthon>  (86) 
N#CCC(=O)N[Xe]

>  <fragmentA>  (86) 
x0556_0A

>  <fragmentB>  (86) 
x0310_0A

>  <HA>  (86) 
17

>  <HBD>  (86) 
2

>  <HBA>  (86) 
4

>  <MW>  (86) 
235.095691276

>  <TPSA>  (86) 
84.08

>  <LogP>  (86) 
1.2450999999999999

>  <RBs>  (86) 
3

>  <G_bound>  (86) 
-7.394191660847809

>  <G_unbound>  (86) 
0.36813251818247816

>  <deltaG>  (86) 
-7.762324179030287

>  <comRMSD>  (86) 
0.892480554978925

>  <UFFGibbs>  (86) 
203.00709893693696

>  <strain_per_HA>  (86) 
11.941594055113939

>  <substructure_overlap_check>  (86) 
True

>  <energy_ratio_check>  (86) 
True

>  <const_energy/unconst_energy>  (86) 
1.0000890838522676

>  <sucos>  (86) 
0.5300236102478771

>  <interactions>  (86) 
HBDonor_SER-125,Hydrophobic_TYR-90,Hydrophobic_HIS-21,Hydrophobic_PRO-107,Hydrophobic_TYR-89,Hydrophobic_THR-126

>  <total_num_ints>  (86) 
6

>  <total_num_ints_nonhyd>  (86) 
1

>  <num_uniq_frag_ints>  (86) 
1

>  <num_repl_uniq_ints>  (86) 
1

>  <num_uniq_ints_lost>  (86) 
0

>  <num_new_uniq_ints>  (86) 
5

>  <int_check>  (86) 
True

>  <ref_url>  (86) 
https://pubs.acs.org/doi/10.1021/acs.jcim.3c00276?fig=tgr1&ref=pdf

>  <submitter_name>  (86) 
Steph Wills

>  <submitter_institution>  (86) 
University of Oxford

>  <submitter_email>  (86) 
stephanie.wills@balliol.ox.ac.uk

>  <generation_date>  (86) 
2023-11-23

>  <method>  (86) 
FragNetv2

>  <original SMILES>  (86) 
COC(=O)c1cc(NC(=O)C(C)=C2CC2)[nH]n1

>  <original_name>  (86) 
x0556_0A-x0310_0A_45895_B1X

>  <ref_mols>  (86) 
x0556_0A,x0310_0A

>  <ref_pdb>  (86) 
x0310_0A

>  <rationale>  (86) 
FragNet: 1 round bioisosteric merging incl c1cn[nH]c1 and CC(C(=O)N[Xe])=C1CC1 replacing N#CCC(=O)N[Xe]

$$$$
x0556_0A-x0310_0A_50776_B1X
     RDKit          3D

 19 19  0  0  0  0  0  0  0  0999 V2000
    7.0300   14.2100   23.1760 C   0  0  0  0  0  0  0  0  0  0  0  0
    7.3250   13.6830   24.8880 S   0  0  0  0  0  0  0  0  0  0  0  0
    7.9760   12.0220   24.5590 C   0  0  0  0  0  0  0  0  0  0  0  0
    7.3900   10.9090   25.1460 C   0  0  0  0  0  0  0  0  0  0  0  0
    8.0840    9.8100   24.7050 N   0  0  0  0  0  0  0  0  0  0  0  0
    9.0940   10.2000   23.8540 N   0  0  0  0  0  0  0  0  0  0  0  0
    9.9400    9.1690   23.2670 C   0  0  0  0  0  0  0  0  0  0  0  0
    9.1430   11.5290   23.6920 C   0  0  0  0  0  0  0  0  0  0  0  0
   10.0000   12.3270   22.9500 N   0  0  0  0  0  0  0  0  0  0  0  0
   10.8760   13.2120   23.6100 C   0  0  0  0  0  0  0  0  0  0  0  0
   10.5910   13.8050   24.6380 O   0  0  0  0  0  0  0  0  0  0  0  0
   12.2340   13.3620   22.9640 C   0  0  0  0  0  0  0  0  0  0  0  0
   12.4050   14.7120   22.7570 C   0  0  0  0  0  0  0  0  0  0  0  0
   11.7830   15.4040   23.7310 F   0  0  0  0  0  0  0  0  0  0  0  0
   13.7040   14.9300   23.0030 F   0  0  0  0  0  0  0  0  0  0  0  0
   12.1380   15.4070   21.4730 C   0  0  0  0  0  0  0  0  0  0  0  0
   13.0250   15.0000   20.5370 F   0  0  0  0  0  0  0  0  0  0  0  0
   10.8990   15.1390   20.9820 F   0  0  0  0  0  0  0  0  0  0  0  0
   12.2630   16.7280   21.6170 F   0  0  0  0  0  0  0  0  0  0  0  0
  1  2  1  0
  2  3  1  0
  3  4  1  0
  4  5  2  0
  5  6  1  0
  6  7  1  0
  6  8  1  0
  8  9  1  0
  9 10  1  0
 10 11  2  0
 10 12  1  0
 12 13  1  0
 13 14  1  0
 13 15  1  0
 13 16  1  0
 16 17  1  0
 16 18  1  0
 16 19  1  0
  8  3  2  0
A    1
 C1 
A    2
 S1 
A    3
 C2 
A    4
 C3 
A    5
 N1 
A    6
 N2 
A    7
 C4 
A    8
 C5 
A    9
 N3 
A   10
 C6 
A   11
 O1 
A   12
 C7 
A   13
 C8 
A   14
 F1 
A   15
 F2 
A   16
 C9 
A   17
 F3 
A   18
 F4 
A   19
 F5 
M  END
>  <similarity>  (87) 
1.0

>  <smiles>  (87) 
CSc1cnn(C)c1NC(=O)CC(F)(F)C(F)(F)F

>  <cmpd_id>  (87) 
ENAMINE:Z4220841814

>  <used_subnode>  (87) 
c1cn[nH]c1

>  <used_synthon>  (87) 
O=C(CC(F)(F)C(F)(F)F)N[Xe]

>  <ref_subnode>  (87) 
c1cn[nH]c1

>  <ref_synthon>  (87) 
N#CCC(=O)N[Xe]

>  <fragmentA>  (87) 
x0556_0A

>  <fragmentB>  (87) 
x0310_0A

>  <HA>  (87) 
19

>  <HBD>  (87) 
1

>  <HBA>  (87) 
4

>  <MW>  (87) 
303.04647403999996

>  <TPSA>  (87) 
46.92

>  <LogP>  (87) 
2.6682000000000006

>  <RBs>  (87) 
4

>  <G_bound>  (87) 
-5.369583521850942

>  <G_unbound>  (87) 
0.9279354440576969

>  <deltaG>  (87) 
-6.297518965908639

>  <comRMSD>  (87) 
0.5227126809603126

>  <UFFGibbs>  (87) 
81.55490468741661

>  <strain_per_HA>  (87) 
4.2923634046008745

>  <substructure_overlap_check>  (87) 
True

>  <energy_ratio_check>  (87) 
True

>  <const_energy/unconst_energy>  (87) 
0.999878157042433

>  <sucos>  (87) 
0.5309334124203714

>  <interactions>  (87) 
Hydrophobic_VAL-84,HBDonor_SER-125,Hydrophobic_HIS-21,Hydrophobic_PRO-107

>  <total_num_ints>  (87) 
4

>  <total_num_ints_nonhyd>  (87) 
1

>  <num_uniq_frag_ints>  (87) 
1

>  <num_repl_uniq_ints>  (87) 
1

>  <num_uniq_ints_lost>  (87) 
0

>  <num_new_uniq_ints>  (87) 
3

>  <int_check>  (87) 
True

>  <ref_url>  (87) 
https://pubs.acs.org/doi/10.1021/acs.jcim.3c00276?fig=tgr1&ref=pdf

>  <submitter_name>  (87) 
Steph Wills

>  <submitter_institution>  (87) 
University of Oxford

>  <submitter_email>  (87) 
stephanie.wills@balliol.ox.ac.uk

>  <generation_date>  (87) 
2023-11-23

>  <method>  (87) 
FragNetv2

>  <original SMILES>  (87) 
CSc1cnn(C)c1NC(=O)CC(F)(F)C(F)(F)F

>  <original_name>  (87) 
x0556_0A-x0310_0A_50776_B1X

>  <ref_mols>  (87) 
x0556_0A,x0310_0A

>  <ref_pdb>  (87) 
x0310_0A

>  <rationale>  (87) 
FragNet: 1 round bioisosteric merging incl c1cn[nH]c1 and O=C(CC(F)(F)C(F)(F)F)N[Xe] replacing N#CCC(=O)N[Xe]

$$$$
x0556_0A-x0310_0A_87-0_B2S_rgrp-1
     RDKit          3D

 14 14  0  0  0  0  0  0  0  0999 V2000
   13.7760   13.4530   24.7190 C   0  0  0  0  0  0  0  0  0  0  0  0
   13.2550   14.1280   23.5090 C   0  0  0  0  0  0  0  0  0  0  0  0
   11.9430   14.1240   23.0630 C   0  0  0  0  0  0  0  0  0  0  0  0
   11.5470   14.8680   21.8600 C   0  0  0  0  0  0  0  0  0  0  0  0
   11.9390   16.2900   21.7570 C   0  0  0  0  0  0  0  0  0  0  0  0
   10.8610   13.4100   23.7960 C   0  0  0  0  0  0  0  0  0  0  0  0
   10.6490   13.7290   24.9590 O   0  0  0  0  0  0  0  0  0  0  0  0
   10.1780   12.4580   23.0850 N   0  0  0  0  0  0  0  0  0  0  0  0
    9.3270   11.5830   23.7280 C   0  0  0  0  0  0  0  0  0  0  0  0
    8.2430   11.9610   24.6880 C   0  0  0  0  0  0  0  0  0  0  0  0
    7.6490   10.6580   25.0890 C   0  0  0  0  0  0  0  0  0  0  0  0
    8.2490    9.6360   24.4890 N   0  0  0  0  0  0  0  0  0  0  0  0
    9.2330   10.1920   23.6830 N   0  0  0  0  0  0  0  0  0  0  0  0
   10.0370    9.2850   22.8990 C   0  0  0  0  0  0  0  0  0  0  0  0
  1  2  1  0
  2  3  2  3
  3  4  1  0
  4  5  1  0
  3  6  1  0
  6  7  2  0
  6  8  1  0
  8  9  1  0
  9 10  2  0
 10 11  1  0
 11 12  2  0
 12 13  1  0
 13 14  1  0
 13  9  1  0
A    1
 C1 
A    2
 C2 
A    3
 C3 
A    4
 C4 
A    5
 C5 
A    6
 C6 
A    7
 O1 
A    8
 N1 
A    9
 C7 
A   10
 C8 
A   11
 C9 
A   12
 N2 
A   13
 N3 
A   14
 C10
M  END
>  <similarity>  (88) 
1.0

>  <smiles>  (88) 
CC=C(CC)C(=O)Nc1ccnn1C

>  <cmpd_id>  (88) 
ENAMINE:Z1832631732

>  <used_subnode>  (88) 
[Xe]c1cn[nH]c1

>  <used_synthon>  (88) 
CC=C(CC)C(=O)N[Xe]

>  <ref_subnode>  (88) 
[Xe]c1cn[nH]c1

>  <ref_synthon>  (88) 
N#CCC(=O)N[Xe]

>  <fragmentA>  (88) 
x0556_0A

>  <fragmentB>  (88) 
x0310_0A

>  <rev_synthon>  (88) 
[Xe]c1ccn[nH]1

>  <intermed_node1>  (88) 
CC=C(CC)C(N)=O

>  <HA>  (88) 
14

>  <HBD>  (88) 
1

>  <HBA>  (88) 
3

>  <MW>  (88) 
193.1215121

>  <TPSA>  (88) 
46.92

>  <LogP>  (88) 
1.7148999999999999

>  <RBs>  (88) 
3

>  <G_bound>  (88) 
-10.813059932374347

>  <G_unbound>  (88) 
0.2987942161591083

>  <deltaG>  (88) 
-11.111854148533455

>  <comRMSD>  (88) 
0.24665771929425043

>  <substructure_overlap_check>  (88) 
True

>  <energy_ratio_check>  (88) 
True

>  <const_energy/unconst_energy>  (88) 
1.7864598438469397

>  <sucos>  (88) 
0.5320006751976599

>  <interactions>  (88) 
Hydrophobic_PRO-107,HBDonor_SER-125,Hydrophobic_TYR-90,Hydrophobic_TYR-89,Hydrophobic_HIS-21

>  <total_num_ints>  (88) 
5

>  <total_num_ints_nonhyd>  (88) 
1

>  <num_uniq_frag_ints>  (88) 
1

>  <num_repl_uniq_ints>  (88) 
1

>  <num_uniq_ints_lost>  (88) 
0

>  <num_new_uniq_ints>  (88) 
4

>  <int_check>  (88) 
True

>  <ref_url>  (88) 
https://pubs.acs.org/doi/10.1021/acs.jcim.3c00276?fig=tgr1&ref=pdf

>  <submitter_name>  (88) 
Steph Wills

>  <submitter_institution>  (88) 
University of Oxford

>  <submitter_email>  (88) 
stephanie.wills@balliol.ox.ac.uk

>  <generation_date>  (88) 
2023-11-23

>  <method>  (88) 
FragNetv2

>  <original SMILES>  (88) 
CC=C(CC)C(=O)Nc1ccnn1C

>  <original_name>  (88) 
x0556_0A-x0310_0A_87-0_B2S_rgrp-1

>  <ref_mols>  (88) 
x0556_0A,x0310_0A

>  <ref_pdb>  (88) 
x0310_0A

>  <rationale>  (88) 
FragNet: 2 rounds bioisosteric merging (no change in linker) incl [Xe]c1ccn[nH]1 replacing [Xe]c1cn[nH]c1 and CC=C(CC)C(=O)N[Xe] replacing N#CCC(=O)N[Xe]

$$$$
x0556_0A-x0310_0A_6175_B1X
     RDKit          3D

 22 23  0  0  0  0  0  0  0  0999 V2000
   11.0210    8.7480   23.3580 C   0  0  0  0  0  0  0  0  0  0  0  0
    9.9460    9.5760   22.8440 C   0  0  0  0  0  0  0  0  0  0  0  0
    9.4050    8.3960   22.2460 C   0  0  0  0  0  0  0  0  0  0  0  0
    9.1070   10.4150   23.7050 N   0  0  0  0  0  0  0  0  0  0  0  0
    8.2770    9.9080   24.6690 N   0  0  0  0  0  0  0  0  0  0  0  0
    7.6960   11.0000   25.2260 C   0  0  0  0  0  0  0  0  0  0  0  0
    6.6860   11.0280   26.3930 C   0  0  0  0  0  0  0  0  0  0  0  0
    5.5550   10.0550   26.5190 C   0  0  0  0  0  0  0  0  0  0  0  0
    4.8430   10.4150   27.7610 C   0  0  0  0  0  0  0  0  0  0  0  0
    5.6060   11.5410   28.2320 C   0  0  0  0  0  0  0  0  0  0  0  0
    6.6650   11.8230   27.3620 O   0  0  0  0  0  0  0  0  0  0  0  0
    8.1640   12.1360   24.5950 C   0  0  0  0  0  0  0  0  0  0  0  0
    9.0540   11.7570   23.6420 C   0  0  0  0  0  0  0  0  0  0  0  0
    9.7520   12.5840   22.8080 N   0  0  0  0  0  0  0  0  0  0  0  0
   10.6360   13.4800   23.4370 C   0  0  0  0  0  0  0  0  0  0  0  0
   10.5430   13.8510   24.6000 O   0  0  0  0  0  0  0  0  0  0  0  0
   11.7210   13.9710   22.5780 C   0  0  0  0  0  0  0  0  0  0  0  0
   12.5900   14.7900   23.2090 C   0  0  0  0  0  0  0  0  0  0  0  0
   12.0530   16.0270   23.1490 F   0  0  0  0  0  0  0  0  0  0  0  0
   13.6850   14.8840   22.4440 F   0  0  0  0  0  0  0  0  0  0  0  0
   13.0710   14.5390   24.6740 C   0  0  0  0  0  0  0  0  0  0  0  0
   14.2310   13.2040   24.8670 Cl  0  0  0  0  0  0  0  0  0  0  0  0
  1  2  1  0
  2  3  1  0
  2  4  1  0
  4  5  1  0
  5  6  2  0
  6  7  1  0
  7  8  2  0
  8  9  1  0
  9 10  2  0
 10 11  1  0
  6 12  1  0
 12 13  2  0
 13 14  1  0
 14 15  1  0
 15 16  2  0
 15 17  1  0
 17 18  1  0
 18 19  1  0
 18 20  1  0
 18 21  1  0
 21 22  1  0
 13  4  1  0
 11  7  1  0
A    1
 C1 
A    2
 C2 
A    3
 C3 
A    4
 N1 
A    5
 N2 
A    6
 C4 
A    7
 C5 
A    8
 C6 
A    9
 C7 
A   10
 C8 
A   11
 O1 
A   12
 C9 
A   13
 C10
A   14
 N3 
A   15
 C11
A   16
 O2 
A   17
 C12
A   18
 C13
A   19
 F1 
A   20
 F2 
A   21
 C14
A   22
CL1 
M  END
>  <similarity>  (89) 
1.0

>  <smiles>  (89) 
CC(C)n1nc(-c2ccco2)cc1NC(=O)CC(F)(F)CCl

>  <cmpd_id>  (89) 
ENAMINE:Z4320915463

>  <used_subnode>  (89) 
c1cn[nH]c1

>  <used_synthon>  (89) 
O=C(CC(F)(F)CCl)N[Xe]

>  <ref_subnode>  (89) 
c1cn[nH]c1

>  <ref_synthon>  (89) 
N#CCC(=O)N[Xe]

>  <fragmentA>  (89) 
x0556_0A

>  <fragmentB>  (89) 
x0310_0A

>  <HA>  (89) 
22

>  <HBD>  (89) 
1

>  <HBA>  (89) 
4

>  <MW>  (89) 
331.08991087199996

>  <TPSA>  (89) 
60.06

>  <LogP>  (89) 
3.926700000000003

>  <RBs>  (89) 
6

>  <G_bound>  (89) 
-3.2680920232408233

>  <G_unbound>  (89) 
0.7435036771738085

>  <deltaG>  (89) 
-4.011595700414632

>  <comRMSD>  (89) 
0.498898496297362

>  <UFFGibbs>  (89) 
1872.2552183403611

>  <strain_per_HA>  (89) 
85.10250992456187

>  <substructure_overlap_check>  (89) 
True

>  <energy_ratio_check>  (89) 
True

>  <const_energy/unconst_energy>  (89) 
0.9991550929705343

>  <sucos>  (89) 
0.5324616961212234

>  <interactions>  (89) 
HBDonor_SER-125,Hydrophobic_HIS-21,Hydrophobic_PRO-107,Hydrophobic_CYS-110,Hydrophobic_VAL-124,Hydrophobic_TYR-89,Hydrophobic_ASP-109

>  <total_num_ints>  (89) 
7

>  <total_num_ints_nonhyd>  (89) 
1

>  <num_uniq_frag_ints>  (89) 
1

>  <num_repl_uniq_ints>  (89) 
1

>  <num_uniq_ints_lost>  (89) 
0

>  <num_new_uniq_ints>  (89) 
6

>  <int_check>  (89) 
True

>  <ref_url>  (89) 
https://pubs.acs.org/doi/10.1021/acs.jcim.3c00276?fig=tgr1&ref=pdf

>  <submitter_name>  (89) 
Steph Wills

>  <submitter_institution>  (89) 
University of Oxford

>  <submitter_email>  (89) 
stephanie.wills@balliol.ox.ac.uk

>  <generation_date>  (89) 
2023-11-23

>  <method>  (89) 
FragNetv2

>  <original SMILES>  (89) 
CC(C)n1nc(-c2ccco2)cc1NC(=O)CC(F)(F)CCl

>  <original_name>  (89) 
x0556_0A-x0310_0A_6175_B1X

>  <ref_mols>  (89) 
x0556_0A,x0310_0A

>  <ref_pdb>  (89) 
x0310_0A

>  <rationale>  (89) 
FragNet: 1 round bioisosteric merging incl c1cn[nH]c1 and O=C(CC(F)(F)CCl)N[Xe] replacing N#CCC(=O)N[Xe]

$$$$
x0556_0A-x0310_0A_46095-5_B2L
     RDKit          3D

 22 24  0  0  0  0  0  0  0  0999 V2000
   11.5330   14.8760   18.2290 C   0  0  0  0  0  0  0  0  0  0  0  0
   12.7800   14.9370   19.0750 C   0  0  0  0  0  0  0  0  0  0  0  0
   13.5400   15.9040   18.9870 O   0  0  0  0  0  0  0  0  0  0  0  0
   12.9340   13.7900   19.9690 N   0  0  0  0  0  0  0  0  0  0  0  0
   12.7550   14.0570   21.2670 C   0  0  0  0  0  0  0  0  0  0  0  0
   13.4880   14.9760   21.9000 C   0  0  0  0  0  0  0  0  0  0  0  0
   13.1650   15.1920   23.3120 C   0  0  0  0  0  0  0  0  0  0  0  0
   12.0900   14.4550   23.9340 C   0  0  0  0  0  0  0  0  0  0  0  0
   11.4760   13.6080   23.1190 C   0  0  0  0  0  0  0  0  0  0  0  0
   10.3540   12.9130   23.7290 C   0  0  0  0  0  0  0  0  0  0  0  0
   10.0820   13.2150   24.8600 O   0  0  0  0  0  0  0  0  0  0  0  0
    9.6470   12.0190   23.0200 N   0  0  0  0  0  0  0  0  0  0  0  0
    8.8210   11.3290   23.8500 C   0  0  0  0  0  0  0  0  0  0  0  0
    8.7760    9.9850   24.0320 N   0  0  0  0  0  0  0  0  0  0  0  0
    7.8540    9.6170   24.9490 N   0  0  0  0  0  0  0  0  0  0  0  0
    7.2970   10.7520   25.3670 C   0  0  0  0  0  0  0  0  0  0  0  0
    7.8730   11.8410   24.6930 C   0  0  0  0  0  0  0  0  0  0  0  0
    7.3320   13.1980   25.0660 C   0  0  0  0  0  0  0  0  0  0  0  0
    6.1360   13.1570   25.9440 C   0  0  0  0  0  0  0  0  0  0  0  0
    5.9220   12.2150   26.9120 C   0  0  0  0  0  0  0  0  0  0  0  0
    6.2240   10.7920   26.4080 C   0  0  0  0  0  0  0  0  0  0  0  0
   11.7690   13.3750   21.8520 N   0  0  0  0  0  0  0  0  0  0  0  0
  1  2  1  0
  2  3  2  0
  2  4  1  0
  4  5  1  0
  5  6  2  0
  6  7  1  0
  7  8  2  0
  8  9  1  0
  9 10  1  0
 10 11  2  0
 10 12  1  0
 12 13  1  0
 13 14  1  0
 14 15  1  0
 15 16  2  0
 16 17  1  0
 17 18  1  0
 18 19  1  0
 19 20  1  0
 20 21  1  0
  9 22  2  0
 22  5  1  0
 17 13  2  0
 21 16  1  0
A    1
 C1 
A    2
 C2 
A    3
 O1 
A    4
 N1 
A    5
 C3 
A    6
 C4 
A    7
 C5 
A    8
 C6 
A    9
 C7 
A   10
 C8 
A   11
 O2 
A   12
 N2 
A   13
 C9 
A   14
 N3 
A   15
 N4 
A   16
 C10
A   17
 C11
A   18
 C12
A   19
 C13
A   20
 C14
A   21
 C15
A   22
 N5 
M  END
>  <similarity>  (90) 
1.0

>  <smiles>  (90) 
CC(=O)Nc1cccc(C(=O)Nc2[nH]nc3c2CCCC3)n1

>  <cmpd_id>  (90) 
ENAMINE:Z4521052595

>  <used_subnode>  (90) 
[Xe]c1cn[nH]c1

>  <used_synthon>  (90) 
CC(=O)N[Xe]

>  <ref_subnode>  (90) 
[Xe]c1cn[nH]c1

>  <ref_synthon>  (90) 
N#CCC(=O)N[Xe]

>  <fragmentA>  (90) 
x0556_0A

>  <fragmentB>  (90) 
x0310_0A

>  <rev_synthon>  (90) 
[Xe]c1[nH]nc2c1CCCC2

>  <intermed_node1>  (90) 
CC(=O)Nc1cccc(C(N)=O)n1

>  <HA>  (90) 
22

>  <HBD>  (90) 
3

>  <HBA>  (90) 
4

>  <MW>  (90) 
299.13822478400004

>  <TPSA>  (90) 
99.77000000000001

>  <LogP>  (90) 
1.8941999999999997

>  <RBs>  (90) 
3

>  <G_bound>  (90) 
-2.5015888356175786

>  <G_unbound>  (90) 
0.8152717657685009

>  <deltaG>  (90) 
-3.3168606013860797

>  <comRMSD>  (90) 
0.7583465659452493

>  <substructure_overlap_check>  (90) 
True

>  <energy_ratio_check>  (90) 
True

>  <const_energy/unconst_energy>  (90) 
2.531667341759009

>  <sucos>  (90) 
0.5331554833202337

>  <interactions>  (90) 
Hydrophobic_PRO-107,Hydrophobic_ASP-39,Hydrophobic_TYR-90,PiStacking_TYR-90,Hydrophobic_HIS-21,Hydrophobic_TYR-89,HBDonor_SER-125,Hydrophobic_THR-126

>  <total_num_ints>  (90) 
8

>  <total_num_ints_nonhyd>  (90) 
2

>  <num_uniq_frag_ints>  (90) 
1

>  <num_repl_uniq_ints>  (90) 
1

>  <num_uniq_ints_lost>  (90) 
0

>  <num_new_uniq_ints>  (90) 
7

>  <int_check>  (90) 
True

>  <ref_url>  (90) 
https://pubs.acs.org/doi/10.1021/acs.jcim.3c00276?fig=tgr1&ref=pdf

>  <submitter_name>  (90) 
Steph Wills

>  <submitter_institution>  (90) 
University of Oxford

>  <submitter_email>  (90) 
stephanie.wills@balliol.ox.ac.uk

>  <generation_date>  (90) 
2023-11-23

>  <method>  (90) 
FragNetv2

>  <original SMILES>  (90) 
CC(=O)Nc1cccc(C(=O)Nc2[nH]nc3c2CCCC3)n1

>  <original_name>  (90) 
x0556_0A-x0310_0A_46095-5_B2L

>  <ref_mols>  (90) 
x0556_0A,x0310_0A

>  <ref_pdb>  (90) 
x0310_0A

>  <rationale>  (90) 
FragNet: 2 rounds bioisosteric merging (with change in linker) incl [Xe]c1[nH]nc2c1CCCC2 replacing [Xe]c1cn[nH]c1 and CC(=O)N[Xe] replacing N#CCC(=O)N[Xe]

$$$$
x0310_0A-x0556_0A_1336-0_B2S
     RDKit          3D

 21 22  0  0  0  0  0  0  0  0999 V2000
   11.1360   13.6010   24.4990 O   0  0  0  0  0  0  0  0  0  0  0  0
   11.0890   13.1520   23.3620 C   0  0  0  0  0  0  0  0  0  0  0  0
   11.8270   13.7650   22.1950 C   0  0  0  0  0  0  0  0  0  0  0  0
   12.7020   14.8950   22.6910 C   0  0  0  0  0  0  0  0  0  0  0  0
   11.9970   16.0550   22.6930 F   0  0  0  0  0  0  0  0  0  0  0  0
   13.0700   14.6440   23.9750 F   0  0  0  0  0  0  0  0  0  0  0  0
   10.3360   12.0500   23.0510 N   0  0  0  0  0  0  0  0  0  0  0  0
    9.1870   11.7370   23.8090 C   0  0  0  0  0  0  0  0  0  0  0  0
    8.3350   12.7380   24.2330 C   0  0  0  0  0  0  0  0  0  0  0  0
    7.0510   12.5280   25.0750 C   0  0  0  0  0  0  0  0  0  0  0  0
    6.9530   11.0000   25.3190 C   0  0  0  0  0  0  0  0  0  0  0  0
    5.8080   10.6510   26.0410 O   0  0  0  0  0  0  0  0  0  0  0  0
    5.7850   10.3070   27.4360 C   0  0  0  0  0  0  0  0  0  0  0  0
    6.3250   11.1730   28.4900 C   0  0  0  0  0  0  0  0  0  0  0  0
    6.7490   10.6700   29.7620 C   0  0  0  0  0  0  0  0  0  0  0  0
    7.2400   11.6300   30.6310 C   0  0  0  0  0  0  0  0  0  0  0  0
    7.3110   12.9730   30.2860 C   0  0  0  0  0  0  0  0  0  0  0  0
    6.8790   13.3530   29.0450 C   0  0  0  0  0  0  0  0  0  0  0  0
    6.3900   12.4890   28.1480 N   0  0  0  0  0  0  0  0  0  0  0  0
    7.8190   10.0580   24.8900 N   0  0  0  0  0  0  0  0  0  0  0  0
    8.8920   10.4280   24.1580 C   0  0  0  0  0  0  0  0  0  0  0  0
  1  2  2  0
  2  3  1  0
  3  4  1  0
  4  5  1  0
  4  6  1  0
  2  7  1  0
  7  8  1  0
  8  9  2  0
  9 10  1  0
 10 11  2  0
 11 12  1  0
 12 13  1  0
 13 14  1  0
 14 15  2  0
 15 16  1  0
 16 17  2  0
 17 18  1  0
 18 19  2  0
 11 20  1  0
 20 21  2  0
 21  8  1  0
 19 14  1  0
A    1
 O1 
A    2
 C1 
A    3
 C2 
A    4
 C3 
A    5
 F1 
A    6
 F2 
A    7
 N1 
A    8
 C4 
A    9
 C5 
A   10
 C6 
A   11
 C7 
A   12
 O2 
A   13
 C8 
A   14
 C9 
A   15
 C10
A   16
 C11
A   17
 C12
A   18
 C13
A   19
 N2 
A   20
 N3 
A   21
 C14
M  END
>  <similarity>  (91) 
1.0

>  <smiles>  (91) 
O=C(CC(F)F)Nc1ccc(OCc2ccccn2)nc1

>  <cmpd_id>  (91) 
ENAMINE:PV-003728246821

>  <used_subnode>  (91) 
N#CCC(=O)N[Xe]

>  <used_synthon>  (91) 
[Xe]c1ccccn1

>  <ref_subnode>  (91) 
N#CCC(=O)N[Xe]

>  <ref_synthon>  (91) 
[Xe]n1cccn1

>  <fragmentA>  (91) 
x0310_0A

>  <fragmentB>  (91) 
x0556_0A

>  <rev_synthon>  (91) 
O=C(CC(F)F)N[Xe]

>  <intermed_node1>  (91) 
c1ccc(COc2ccccn2)nc1

>  <HA>  (91) 
21

>  <HBD>  (91) 
1

>  <HBA>  (91) 
4

>  <MW>  (91) 
293.09758309600005

>  <TPSA>  (91) 
64.11

>  <LogP>  (91) 
2.6493

>  <RBs>  (91) 
6

>  <G_bound>  (91) 
-4.074402360978926

>  <G_unbound>  (91) 
0.7554755074012581

>  <deltaG>  (91) 
-4.829877868380184

>  <comRMSD>  (91) 
0.48878492564262277

>  <substructure_overlap_check>  (91) 
True

>  <energy_ratio_check>  (91) 
True

>  <const_energy/unconst_energy>  (91) 
3.7076573847674292

>  <sucos>  (91) 
0.5331639886897924

>  <interactions>  (91) 
Hydrophobic_HIS-21,Hydrophobic_GLU-106,HBDonor_SER-125,Hydrophobic_PRO-107

>  <total_num_ints>  (91) 
4

>  <total_num_ints_nonhyd>  (91) 
1

>  <num_uniq_frag_ints>  (91) 
1

>  <num_repl_uniq_ints>  (91) 
1

>  <num_uniq_ints_lost>  (91) 
0

>  <num_new_uniq_ints>  (91) 
3

>  <int_check>  (91) 
True

>  <ref_url>  (91) 
https://pubs.acs.org/doi/10.1021/acs.jcim.3c00276?fig=tgr1&ref=pdf

>  <submitter_name>  (91) 
Steph Wills

>  <submitter_institution>  (91) 
University of Oxford

>  <submitter_email>  (91) 
stephanie.wills@balliol.ox.ac.uk

>  <generation_date>  (91) 
2023-11-23

>  <method>  (91) 
FragNetv2

>  <original SMILES>  (91) 
O=C(CC(F)F)Nc1ccc(OCc2ccccn2)nc1

>  <original_name>  (91) 
x0310_0A-x0556_0A_1336-0_B2S

>  <ref_mols>  (91) 
x0310_0A,x0556_0A

>  <ref_pdb>  (91) 
x0310_0A

>  <rationale>  (91) 
FragNet: 2 rounds bioisosteric merging (no change in linker) incl O=C(CC(F)F)N[Xe] replacing N#CCC(=O)N[Xe] and [Xe]c1ccccn1 replacing [Xe]n1cccn1

$$$$
x0310_0A-x0556_0A_1336-2_B2S
     RDKit          3D

 23 24  0  0  0  0  0  0  0  0999 V2000
   11.1900   15.7080   20.8240 C   0  0  0  0  0  0  0  0  0  0  0  0
   11.9100   16.0740   22.1290 C   0  0  0  0  0  0  0  0  0  0  0  0
   12.7040   14.9440   22.7720 C   0  0  0  0  0  0  0  0  0  0  0  0
   12.2040   13.5680   22.4340 C   0  0  1  0  0  0  0  0  0  0  0  0
   13.3220   12.5220   22.3300 C   0  0  0  0  0  0  0  0  0  0  0  0
   14.6140   13.0880   21.7280 C   0  0  0  0  0  0  0  0  0  0  0  0
   11.1310   13.1290   23.4310 C   0  0  0  0  0  0  0  0  0  0  0  0
   10.9440   13.7230   24.4870 O   0  0  0  0  0  0  0  0  0  0  0  0
   10.4060   12.0240   23.0420 N   0  0  0  0  0  0  0  0  0  0  0  0
    9.2680   11.6640   23.7850 C   0  0  0  0  0  0  0  0  0  0  0  0
    8.3850   12.8100   24.1930 C   0  0  0  0  0  0  0  0  0  0  0  0
    7.1940   12.5040   24.9770 C   0  0  0  0  0  0  0  0  0  0  0  0
    6.8820   11.2290   25.3370 C   0  0  0  0  0  0  0  0  0  0  0  0
    5.6970   11.1120   26.0670 O   0  0  0  0  0  0  0  0  0  0  0  0
    5.7160   10.4250   27.3190 C   0  0  0  0  0  0  0  0  0  0  0  0
    6.2590   11.2450   28.3070 C   0  0  0  0  0  0  0  0  0  0  0  0
    6.5210   12.5710   28.0180 C   0  0  0  0  0  0  0  0  0  0  0  0
    7.0750   13.3850   29.0140 C   0  0  0  0  0  0  0  0  0  0  0  0
    7.3510   12.8580   30.2680 C   0  0  0  0  0  0  0  0  0  0  0  0
    7.0740   11.5220   30.5230 C   0  0  0  0  0  0  0  0  0  0  0  0
    6.5400   10.6810   29.6130 N   0  0  0  0  0  0  0  0  0  0  0  0
    7.6790   10.1760   24.9760 N   0  0  0  0  0  0  0  0  0  0  0  0
    8.8270   10.4020   24.2220 C   0  0  0  0  0  0  0  0  0  0  0  0
  1  2  2  3
  2  3  1  0
  4  3  1  1
  4  5  1  0
  5  6  1  0
  4  7  1  0
  7  8  2  0
  7  9  1  0
  9 10  1  0
 10 11  2  0
 11 12  1  0
 12 13  2  0
 13 14  1  0
 14 15  1  0
 15 16  1  0
 16 17  2  0
 17 18  1  0
 18 19  2  0
 19 20  1  0
 20 21  2  0
 13 22  1  0
 22 23  2  0
 23 10  1  0
 21 16  1  0
A    1
 C1 
A    2
 C2 
A    3
 C3 
A    4
 C4 
A    5
 C5 
A    6
 C6 
A    7
 C7 
A    8
 O1 
A    9
 N1 
A   10
 C8 
A   11
 C9 
A   12
 C10
A   13
 C11
A   14
 O2 
A   15
 C12
A   16
 C13
A   17
 C14
A   18
 C15
A   19
 C16
A   20
 C17
A   21
 N2 
A   22
 N3 
A   23
 C18
M  END
>  <similarity>  (92) 
1.0

>  <smiles>  (92) 
C=CCC(CC)C(=O)Nc1ccc(OCc2ccccn2)nc1

>  <cmpd_id>  (92) 
ENAMINE:Z4492772573

>  <used_subnode>  (92) 
N#CCC(=O)N[Xe]

>  <used_synthon>  (92) 
[Xe]c1ccccn1

>  <ref_subnode>  (92) 
N#CCC(=O)N[Xe]

>  <ref_synthon>  (92) 
[Xe]n1cccn1

>  <fragmentA>  (92) 
x0310_0A

>  <fragmentB>  (92) 
x0556_0A

>  <rev_synthon>  (92) 
C=CCC(CC)C(=O)N[Xe]

>  <intermed_node1>  (92) 
c1ccc(COc2ccccn2)nc1

>  <HA>  (92) 
23

>  <HBD>  (92) 
1

>  <HBA>  (92) 
4

>  <MW>  (92) 
311.16337691200005

>  <TPSA>  (92) 
64.11

>  <LogP>  (92) 
3.596400000000002

>  <RBs>  (92) 
8

>  <G_bound>  (92) 
-7.145384896044582

>  <G_unbound>  (92) 
0.6838957659995438

>  <deltaG>  (92) 
-7.829280662044125

>  <comRMSD>  (92) 
0.5544326341822632

>  <substructure_overlap_check>  (92) 
True

>  <energy_ratio_check>  (92) 
True

>  <const_energy/unconst_energy>  (92) 
6.0653762423583375

>  <sucos>  (92) 
0.5331937227319039

>  <interactions>  (92) 
Hydrophobic_LEU-22,Hydrophobic_TYR-90,Hydrophobic_HIS-21,HBDonor_SER-125,Hydrophobic_CYS-110,Hydrophobic_TYR-89,Hydrophobic_PRO-107

>  <total_num_ints>  (92) 
7

>  <total_num_ints_nonhyd>  (92) 
1

>  <num_uniq_frag_ints>  (92) 
1

>  <num_repl_uniq_ints>  (92) 
1

>  <num_uniq_ints_lost>  (92) 
0

>  <num_new_uniq_ints>  (92) 
6

>  <int_check>  (92) 
True

>  <ref_url>  (92) 
https://pubs.acs.org/doi/10.1021/acs.jcim.3c00276?fig=tgr1&ref=pdf

>  <submitter_name>  (92) 
Steph Wills

>  <submitter_institution>  (92) 
University of Oxford

>  <submitter_email>  (92) 
stephanie.wills@balliol.ox.ac.uk

>  <generation_date>  (92) 
2023-11-23

>  <method>  (92) 
FragNetv2

>  <original SMILES>  (92) 
C=CCC(CC)C(=O)Nc1ccc(OCc2ccccn2)nc1

>  <original_name>  (92) 
x0310_0A-x0556_0A_1336-2_B2S

>  <ref_mols>  (92) 
x0310_0A,x0556_0A

>  <ref_pdb>  (92) 
x0310_0A

>  <rationale>  (92) 
FragNet: 2 rounds bioisosteric merging (no change in linker) incl C=CCC(CC)C(=O)N[Xe] replacing N#CCC(=O)N[Xe] and [Xe]c1ccccn1 replacing [Xe]n1cccn1

$$$$
x0556_0A-x0310_0A_22294_B1X
     RDKit          3D

 18 18  0  0  0  0  0  0  0  0999 V2000
    9.8660    9.4380   23.2770 C   0  0  0  0  0  0  0  0  0  0  0  0
    8.9750   10.3810   23.9340 N   0  0  0  0  0  0  0  0  0  0  0  0
    7.9760    9.9790   24.8040 N   0  0  0  0  0  0  0  0  0  0  0  0
    7.3810   11.1320   25.1940 C   0  0  0  0  0  0  0  0  0  0  0  0
    6.2020   11.2370   26.1660 C   0  0  0  0  0  0  0  0  0  0  0  0
    5.5460   10.2740   26.5580 O   0  0  0  0  0  0  0  0  0  0  0  0
    5.9570   12.3900   26.5150 O   0  0  0  0  0  0  0  0  0  0  0  0
    8.0820   12.2800   24.5060 C   0  0  0  0  0  0  0  0  0  0  0  0
    9.0700   11.7600   23.7320 C   0  0  0  0  0  0  0  0  0  0  0  0
    9.9220   12.4540   22.9760 N   0  0  0  0  0  0  0  0  0  0  0  0
   10.6490   13.5630   23.6020 C   0  0  0  0  0  0  0  0  0  0  0  0
   10.2000   14.1840   24.5560 O   0  0  0  0  0  0  0  0  0  0  0  0
   11.9140   13.8400   23.0860 C   0  0  0  0  0  0  0  0  0  0  0  0
   12.9350   13.1610   23.6900 C   0  0  0  0  0  0  0  0  0  0  0  0
   12.0830   13.8160   21.5610 C   0  0  0  0  0  0  0  0  0  0  0  0
   12.3250   15.2520   23.3940 C   0  0  0  0  0  0  0  0  0  0  0  0
   11.8290   16.1210   22.5010 F   0  0  0  0  0  0  0  0  0  0  0  0
   13.6450   15.2330   23.1760 F   0  0  0  0  0  0  0  0  0  0  0  0
  1  2  1  0
  2  3  1  0
  3  4  2  0
  4  5  1  0
  5  6  2  0
  5  7  1  0
  4  8  1  0
  8  9  2  0
  9 10  1  0
 10 11  1  0
 11 12  2  0
 11 13  1  0
 13 14  1  0
 13 15  1  0
 13 16  1  0
 16 17  1  0
 16 18  1  0
  9  2  1  0
A    1
 C1 
A    2
 N1 
A    3
 N2 
A    4
 C2 
A    5
 C3 
A    6
 O1 
A    7
 O2 
A    8
 C4 
A    9
 C5 
A   10
 N3 
A   11
 C6 
A   12
 O3 
A   13
 C7 
A   14
 C8 
A   15
 C9 
A   16
 C10
A   17
 F1 
A   18
 F2 
M  END
>  <similarity>  (93) 
1.0

>  <smiles>  (93) 
Cn1nc(C(=O)O)cc1NC(=O)C(C)(C)C(F)F

>  <cmpd_id>  (93) 
ENAMINE:Z3509107939

>  <used_subnode>  (93) 
c1cn[nH]c1

>  <used_synthon>  (93) 
CC(C)(C(=O)N[Xe])C(F)F

>  <ref_subnode>  (93) 
c1cn[nH]c1

>  <ref_synthon>  (93) 
N#CCC(=O)N[Xe]

>  <fragmentA>  (93) 
x0556_0A

>  <fragmentB>  (93) 
x0310_0A

>  <HA>  (93) 
18

>  <HBD>  (93) 
2

>  <HBA>  (93) 
4

>  <MW>  (93) 
261.092497716

>  <TPSA>  (93) 
84.22

>  <LogP>  (93) 
1.3480999999999999

>  <RBs>  (93) 
4

>  <G_bound>  (93) 
-7.291218494225372

>  <G_unbound>  (93) 
0.6506139930912012

>  <deltaG>  (93) 
-7.9418324873165735

>  <comRMSD>  (93) 
0.5520810621659155

>  <UFFGibbs>  (93) 
170.64127886025884

>  <strain_per_HA>  (93) 
9.480071047792158

>  <substructure_overlap_check>  (93) 
True

>  <energy_ratio_check>  (93) 
True

>  <const_energy/unconst_energy>  (93) 
0.9611789157666464

>  <sucos>  (93) 
0.533551011465092

>  <interactions>  (93) 
HBDonor_SER-125,Hydrophobic_HIS-21,Hydrophobic_PRO-107

>  <total_num_ints>  (93) 
3

>  <total_num_ints_nonhyd>  (93) 
1

>  <num_uniq_frag_ints>  (93) 
1

>  <num_repl_uniq_ints>  (93) 
1

>  <num_uniq_ints_lost>  (93) 
0

>  <num_new_uniq_ints>  (93) 
2

>  <int_check>  (93) 
True

>  <ref_url>  (93) 
https://pubs.acs.org/doi/10.1021/acs.jcim.3c00276?fig=tgr1&ref=pdf

>  <submitter_name>  (93) 
Steph Wills

>  <submitter_institution>  (93) 
University of Oxford

>  <submitter_email>  (93) 
stephanie.wills@balliol.ox.ac.uk

>  <generation_date>  (93) 
2023-11-23

>  <method>  (93) 
FragNetv2

>  <original SMILES>  (93) 
Cn1nc(C(=O)O)cc1NC(=O)C(C)(C)C(F)F

>  <original_name>  (93) 
x0556_0A-x0310_0A_22294_B1X

>  <ref_mols>  (93) 
x0556_0A,x0310_0A

>  <ref_pdb>  (93) 
x0310_0A

>  <rationale>  (93) 
FragNet: 1 round bioisosteric merging incl c1cn[nH]c1 and CC(C)(C(=O)N[Xe])C(F)F replacing N#CCC(=O)N[Xe]

$$$$
x0556_0A-x0310_0A_17602_B1X_rgrp-0
     RDKit          3D

 19 19  0  0  0  0  0  0  0  0999 V2000
    6.3020   10.5480   26.3200 C   0  0  0  0  0  0  0  0  0  0  0  0
    7.3870   10.7880   25.3140 C   0  0  0  0  0  0  0  0  0  0  0  0
    8.0680    9.7900   24.7230 N   0  0  0  0  0  0  0  0  0  0  0  0
    8.9600   10.2830   23.8630 N   0  0  0  0  0  0  0  0  0  0  0  0
    8.8750   11.6300   23.8770 C   0  0  0  0  0  0  0  0  0  0  0  0
    9.6950   12.4010   23.0520 N   0  0  0  0  0  0  0  0  0  0  0  0
   10.5770   13.3200   23.5650 C   0  0  0  0  0  0  0  0  0  0  0  0
   10.5190   13.7920   24.6950 O   0  0  0  0  0  0  0  0  0  0  0  0
   11.5270   13.6280   22.5930 C   0  0  0  0  0  0  0  0  0  0  0  0
   12.7280   14.4390   22.9590 C   0  0  1  0  0  0  0  0  0  0  0  0
   12.5770   15.8090   22.2680 C   0  0  0  0  0  0  0  0  0  0  0  0
   12.8890   14.4480   24.4970 C   0  0  0  0  0  0  0  0  0  0  0  0
   14.2820   14.2780   25.1150 C   0  0  0  0  0  0  0  0  0  0  0  0
   14.7240   12.8240   24.9920 C   0  0  0  0  0  0  0  0  0  0  0  0
   15.3440   15.1620   24.4690 C   0  0  0  0  0  0  0  0  0  0  0  0
   14.2600   14.6220   26.6130 C   0  0  0  0  0  0  0  0  0  0  0  0
    7.8810   11.9900   24.8090 C   0  0  0  0  0  0  0  0  0  0  0  0
    7.4550   13.2410   25.1770 C   0  0  0  0  0  0  0  0  0  0  0  0
    7.0860   14.4510   25.6470 N   0  0  0  0  0  0  0  0  0  0  0  0
  1  2  1  0
  2  3  2  0
  3  4  1  0
  4  5  1  0
  5  6  1  0
  6  7  1  0
  7  8  2  0
  7  9  1  0
  9 10  1  0
 10 11  1  1
 10 12  1  0
 12 13  1  0
 13 14  1  0
 13 15  1  0
 13 16  1  0
  5 17  2  0
 17 18  1  0
 18 19  3  0
 17  2  1  0
A    1
 C1 
A    2
 C2 
A    3
 N1 
A    4
 N2 
A    5
 C3 
A    6
 N3 
A    7
 C4 
A    8
 O1 
A    9
 C5 
A   10
 C6 
A   11
 C7 
A   12
 C8 
A   13
 C9 
A   14
 C10
A   15
 C11
A   16
 C12
A   17
 C13
A   18
 C14
A   19
 N4 
M  END
>  <similarity>  (94) 
1.0

>  <smiles>  (94) 
Cc1n[nH]c(NC(=O)CC(C)CC(C)(C)C)c1C#N

>  <cmpd_id>  (94) 
ENAMINE:Z2125637904

>  <used_subnode>  (94) 
c1cn[nH]c1

>  <used_synthon>  (94) 
CC(CC(=O)N[Xe])CC(C)(C)C

>  <ref_subnode>  (94) 
c1cn[nH]c1

>  <ref_synthon>  (94) 
N#CCC(=O)N[Xe]

>  <fragmentA>  (94) 
x0556_0A

>  <fragmentB>  (94) 
x0310_0A

>  <HA>  (94) 
19

>  <HBD>  (94) 
2

>  <HBA>  (94) 
3

>  <MW>  (94) 
262.179361324

>  <TPSA>  (94) 
81.57

>  <LogP>  (94) 
2.9907000000000012

>  <RBs>  (94) 
4

>  <G_bound>  (94) 
-11.461645513391767

>  <G_unbound>  (94) 
0.2763678453086732

>  <deltaG>  (94) 
-11.73801335870044

>  <comRMSD>  (94) 
0.3317833725652754

>  <substructure_overlap_check>  (94) 
True

>  <energy_ratio_check>  (94) 
True

>  <const_energy/unconst_energy>  (94) 
4.0984727184423715

>  <sucos>  (94) 
0.5339976990023194

>  <interactions>  (94) 
Hydrophobic_GLU-88,Hydrophobic_PRO-107,Hydrophobic_HIS-21,Hydrophobic_TYR-89,HBDonor_SER-125,Hydrophobic_LEU-22,Hydrophobic_TYR-90

>  <total_num_ints>  (94) 
7

>  <total_num_ints_nonhyd>  (94) 
1

>  <num_uniq_frag_ints>  (94) 
1

>  <num_repl_uniq_ints>  (94) 
1

>  <num_uniq_ints_lost>  (94) 
0

>  <num_new_uniq_ints>  (94) 
6

>  <int_check>  (94) 
True

>  <ref_url>  (94) 
https://pubs.acs.org/doi/10.1021/acs.jcim.3c00276?fig=tgr1&ref=pdf

>  <submitter_name>  (94) 
Steph Wills

>  <submitter_institution>  (94) 
University of Oxford

>  <submitter_email>  (94) 
stephanie.wills@balliol.ox.ac.uk

>  <generation_date>  (94) 
2023-11-23

>  <method>  (94) 
FragNetv2

>  <original SMILES>  (94) 
Cc1n[nH]c(NC(=O)CC(C)CC(C)(C)C)c1C#N

>  <original_name>  (94) 
x0556_0A-x0310_0A_17602_B1X_rgrp-0

>  <ref_mols>  (94) 
x0556_0A,x0310_0A

>  <ref_pdb>  (94) 
x0310_0A

>  <rationale>  (94) 
FragNet: 1 round bioisosteric merging incl c1cn[nH]c1 and CC(CC(=O)N[Xe])CC(C)(C)C replacing N#CCC(=O)N[Xe]

$$$$
x0556_0A-x0310_0A_54737_B1X
     RDKit          3D

 21 21  0  0  0  0  0  0  0  0999 V2000
   11.8530   13.6820   22.6950 C   0  0  0  0  0  0  0  0  0  0  0  0
   10.7080   13.2830   23.6060 C   0  0  0  0  0  0  0  0  0  0  0  0
   10.8370   13.8440   24.9120 O   0  0  0  0  0  0  0  0  0  0  0  0
    9.7040   12.4720   23.1040 N   0  0  0  0  0  0  0  0  0  0  0  0
    8.8590   11.7220   23.9200 C   0  0  0  0  0  0  0  0  0  0  0  0
    8.8350   10.3760   24.1480 N   0  0  0  0  0  0  0  0  0  0  0  0
    7.8580    9.9880   25.0190 N   0  0  0  0  0  0  0  0  0  0  0  0
    7.1760   11.1010   25.4150 C   0  0  0  0  0  0  0  0  0  0  0  0
    6.1050   11.0580   26.3130 C   0  0  0  0  0  0  0  0  0  0  0  0
    5.5350   12.0880   26.6750 O   0  0  0  0  0  0  0  0  0  0  0  0
    5.6680    9.8320   26.8150 N   0  0  0  0  0  0  0  0  0  0  0  0
    4.8210    9.7540   28.0020 C   0  0  0  0  0  0  0  0  0  0  0  0
    3.7650    8.6340   28.0310 C   0  0  0  0  0  0  0  0  0  0  0  0
    3.7050    7.9280   26.8450 C   0  0  0  0  0  0  0  0  0  0  0  0
    4.0840    7.1600   28.1150 C   0  0  0  0  0  0  0  0  0  0  0  0
    2.5140    8.9380   28.6140 C   0  0  0  0  0  0  0  0  0  0  0  0
    1.5020    8.2370   28.0480 F   0  0  0  0  0  0  0  0  0  0  0  0
    2.2050   10.2510   28.4970 F   0  0  0  0  0  0  0  0  0  0  0  0
    2.4950    8.6510   29.9390 F   0  0  0  0  0  0  0  0  0  0  0  0
    7.7160   12.2490   24.7870 C   0  0  0  0  0  0  0  0  0  0  0  0
    7.1610   14.0270   24.9720 Br  0  0  0  0  0  0  0  0  0  0  0  0
  1  2  1  0
  2  3  2  0
  2  4  1  0
  4  5  1  0
  5  6  1  0
  6  7  1  0
  7  8  2  0
  8  9  1  0
  9 10  2  0
  9 11  1  0
 11 12  1  0
 12 13  1  0
 13 14  1  0
 13 15  1  0
 13 16  1  0
 16 17  1  0
 16 18  1  0
 16 19  1  0
  8 20  1  0
 20 21  1  0
 20  5  2  0
A    1
 C1 
A    2
 C2 
A    3
 O1 
A    4
 N1 
A    5
 C3 
A    6
 N2 
A    7
 N3 
A    8
 C4 
A    9
 C5 
A   10
 O2 
A   11
 N4 
A   12
 C6 
A   13
 C7 
A   14
 C8 
A   15
 C9 
A   16
 C10
A   17
 F1 
A   18
 F2 
A   19
 F3 
A   20
 C11
A   21
BR1 
M  END
>  <similarity>  (95) 
1.0

>  <smiles>  (95) 
CC(=O)Nc1[nH]nc(C(=O)NCC(C)(C)C(F)(F)F)c1Br

>  <cmpd_id>  (95) 
ENAMINE:Z4323603161

>  <used_subnode>  (95) 
c1cn[nH]c1

>  <used_synthon>  (95) 
CC(=O)N[Xe]

>  <ref_subnode>  (95) 
c1cn[nH]c1

>  <ref_synthon>  (95) 
N#CCC(=O)N[Xe]

>  <fragmentA>  (95) 
x0556_0A

>  <fragmentB>  (95) 
x0310_0A

>  <HA>  (95) 
21

>  <HBD>  (95) 
3

>  <HBA>  (95) 
3

>  <MW>  (95) 
370.02522244799997

>  <TPSA>  (95) 
86.88

>  <LogP>  (95) 
2.4489

>  <RBs>  (95) 
4

>  <G_bound>  (95) 
-6.530468602751796

>  <G_unbound>  (95) 
1.1088570382972123

>  <deltaG>  (95) 
-7.639325641049008

>  <comRMSD>  (95) 
0.7737216915160402

>  <UFFGibbs>  (95) 
667501793794.1458

>  <strain_per_HA>  (95) 
31785799704.48313

>  <substructure_overlap_check>  (95) 
True

>  <energy_ratio_check>  (95) 
True

>  <const_energy/unconst_energy>  (95) 
0.9895191704237672

>  <sucos>  (95) 
0.5343567660970501

>  <interactions>  (95) 
Hydrophobic_HIS-21,HBDonor_SER-105,Hydrophobic_PRO-107,Hydrophobic_HIS-104,Hydrophobic_GLU-106

>  <total_num_ints>  (95) 
5

>  <total_num_ints_nonhyd>  (95) 
1

>  <num_uniq_frag_ints>  (95) 
1

>  <num_repl_uniq_ints>  (95) 
1

>  <num_uniq_ints_lost>  (95) 
0

>  <num_new_uniq_ints>  (95) 
4

>  <int_check>  (95) 
True

>  <ref_url>  (95) 
https://pubs.acs.org/doi/10.1021/acs.jcim.3c00276?fig=tgr1&ref=pdf

>  <submitter_name>  (95) 
Steph Wills

>  <submitter_institution>  (95) 
University of Oxford

>  <submitter_email>  (95) 
stephanie.wills@balliol.ox.ac.uk

>  <generation_date>  (95) 
2023-11-23

>  <method>  (95) 
FragNetv2

>  <original SMILES>  (95) 
CC(=O)Nc1[nH]nc(C(=O)NCC(C)(C)C(F)(F)F)c1Br

>  <original_name>  (95) 
x0556_0A-x0310_0A_54737_B1X

>  <ref_mols>  (95) 
x0556_0A,x0310_0A

>  <ref_pdb>  (95) 
x0310_0A

>  <rationale>  (95) 
FragNet: 1 round bioisosteric merging incl c1cn[nH]c1 and CC(=O)N[Xe] replacing N#CCC(=O)N[Xe]

$$$$
x0310_0A-x0556_0A_1336-9_B2S
     RDKit          3D

 23 24  0  0  0  0  0  0  0  0999 V2000
   11.4400   14.3700   20.6110 C   0  0  0  0  0  0  0  0  0  0  0  0
   12.5590   13.7380   21.4670 C   0  0  0  0  0  0  0  0  0  0  0  0
   12.2350   13.9400   22.9390 C   0  0  1  0  0  0  0  0  0  0  0  0
   13.3720   13.7040   23.9410 C   0  0  0  0  0  0  0  0  0  0  0  0
   12.0770   15.3670   22.8690 C   0  0  0  0  0  0  0  0  0  0  0  0
   11.9490   16.6760   22.5790 N   0  0  0  0  0  0  0  0  0  0  0  0
   10.9600   13.3430   23.5450 C   0  0  0  0  0  0  0  0  0  0  0  0
   10.4490   13.9390   24.4830 O   0  0  0  0  0  0  0  0  0  0  0  0
   10.4020   12.1580   23.0930 N   0  0  0  0  0  0  0  0  0  0  0  0
    9.2440   11.7810   23.8060 C   0  0  0  0  0  0  0  0  0  0  0  0
    8.2730   12.8550   24.2410 C   0  0  0  0  0  0  0  0  0  0  0  0
    7.1590   12.5010   24.9490 C   0  0  0  0  0  0  0  0  0  0  0  0
    6.9390   11.0410   25.2750 C   0  0  0  0  0  0  0  0  0  0  0  0
    5.7540   10.8050   25.9740 O   0  0  0  0  0  0  0  0  0  0  0  0
    5.6770   10.3320   27.3250 C   0  0  0  0  0  0  0  0  0  0  0  0
    6.1970   11.2040   28.2530 C   0  0  0  0  0  0  0  0  0  0  0  0
    6.5460   10.5180   29.4240 C   0  0  0  0  0  0  0  0  0  0  0  0
    7.0960   11.2440   30.4730 C   0  0  0  0  0  0  0  0  0  0  0  0
    7.2690   12.6230   30.3020 C   0  0  0  0  0  0  0  0  0  0  0  0
    6.8880   13.2150   29.1010 C   0  0  0  0  0  0  0  0  0  0  0  0
    6.3510   12.5350   28.0610 N   0  0  0  0  0  0  0  0  0  0  0  0
    7.8140   10.0780   24.8850 N   0  0  0  0  0  0  0  0  0  0  0  0
    8.9260   10.4560   24.1690 C   0  0  0  0  0  0  0  0  0  0  0  0
  1  2  1  0
  2  3  1  0
  3  4  1  1
  3  5  1  0
  5  6  3  0
  3  7  1  0
  7  8  2  0
  7  9  1  0
  9 10  1  0
 10 11  2  0
 11 12  1  0
 12 13  2  0
 13 14  1  0
 14 15  1  0
 15 16  1  0
 16 17  2  0
 17 18  1  0
 18 19  2  0
 19 20  1  0
 20 21  2  0
 13 22  1  0
 22 23  2  0
 23 10  1  0
 21 16  1  0
A    1
 C1 
A    2
 C2 
A    3
 C3 
A    4
 C4 
A    5
 C5 
A    6
 N1 
A    7
 C6 
A    8
 O1 
A    9
 N2 
A   10
 C7 
A   11
 C8 
A   12
 C9 
A   13
 C10
A   14
 O2 
A   15
 C11
A   16
 C12
A   17
 C13
A   18
 C14
A   19
 C15
A   20
 C16
A   21
 N3 
A   22
 N4 
A   23
 C17
M  END
>  <similarity>  (96) 
1.0

>  <smiles>  (96) 
CCC(C)(C#N)C(=O)Nc1ccc(OCc2ccccn2)nc1

>  <cmpd_id>  (96) 
ENAMINE:Z4247960204

>  <used_subnode>  (96) 
N#CCC(=O)N[Xe]

>  <used_synthon>  (96) 
[Xe]c1ccccn1

>  <ref_subnode>  (96) 
N#CCC(=O)N[Xe]

>  <ref_synthon>  (96) 
[Xe]n1cccn1

>  <fragmentA>  (96) 
x0310_0A

>  <fragmentB>  (96) 
x0556_0A

>  <rev_synthon>  (96) 
CCC(C)(C#N)C(=O)N[Xe]

>  <intermed_node1>  (96) 
c1ccc(COc2ccccn2)nc1

>  <HA>  (96) 
23

>  <HBD>  (96) 
1

>  <HBA>  (96) 
5

>  <MW>  (96) 
310.14297581600005

>  <TPSA>  (96) 
87.9

>  <LogP>  (96) 
2.933980000000001

>  <RBs>  (96) 
6

>  <G_bound>  (96) 
-6.776959489261715

>  <G_unbound>  (96) 
0.3942860986456948

>  <deltaG>  (96) 
-7.17124558790741

>  <comRMSD>  (96) 
0.791036990706385

>  <substructure_overlap_check>  (96) 
True

>  <energy_ratio_check>  (96) 
True

>  <const_energy/unconst_energy>  (96) 
4.980676060164095

>  <sucos>  (96) 
0.5352407013598567

>  <interactions>  (96) 
Hydrophobic_TYR-90,Hydrophobic_HIS-21,Hydrophobic_GLU-106,HBDonor_SER-125,Hydrophobic_TYR-89,Hydrophobic_PRO-107

>  <total_num_ints>  (96) 
6

>  <total_num_ints_nonhyd>  (96) 
1

>  <num_uniq_frag_ints>  (96) 
1

>  <num_repl_uniq_ints>  (96) 
1

>  <num_uniq_ints_lost>  (96) 
0

>  <num_new_uniq_ints>  (96) 
5

>  <int_check>  (96) 
True

>  <ref_url>  (96) 
https://pubs.acs.org/doi/10.1021/acs.jcim.3c00276?fig=tgr1&ref=pdf

>  <submitter_name>  (96) 
Steph Wills

>  <submitter_institution>  (96) 
University of Oxford

>  <submitter_email>  (96) 
stephanie.wills@balliol.ox.ac.uk

>  <generation_date>  (96) 
2023-11-23

>  <method>  (96) 
FragNetv2

>  <original SMILES>  (96) 
CCC(C)(C#N)C(=O)Nc1ccc(OCc2ccccn2)nc1

>  <original_name>  (96) 
x0310_0A-x0556_0A_1336-9_B2S

>  <ref_mols>  (96) 
x0310_0A,x0556_0A

>  <ref_pdb>  (96) 
x0310_0A

>  <rationale>  (96) 
FragNet: 2 rounds bioisosteric merging (no change in linker) incl CCC(C)(C#N)C(=O)N[Xe] replacing N#CCC(=O)N[Xe] and [Xe]c1ccccn1 replacing [Xe]n1cccn1

$$$$
x0556_0A-x0310_0A_12331_B1X
     RDKit          3D

 18 18  0  0  0  0  0  0  0  0999 V2000
    6.4990   10.8660   26.2260 C   0  0  0  0  0  0  0  0  0  0  0  0
    7.5840   10.8540   25.1620 C   0  0  0  0  0  0  0  0  0  0  0  0
    8.1010   12.0960   24.5360 C   0  0  0  0  0  0  0  0  0  0  0  0
    9.1280   11.6820   23.5610 C   0  0  0  0  0  0  0  0  0  0  0  0
    9.8830   12.5920   22.7310 N   0  0  0  0  0  0  0  0  0  0  0  0
   10.3500   13.7370   23.2390 C   0  0  0  0  0  0  0  0  0  0  0  0
   10.0620   14.1080   24.3670 O   0  0  0  0  0  0  0  0  0  0  0  0
   11.1810   14.4520   22.3880 C   0  0  0  0  0  0  0  0  0  0  0  0
   12.5480   14.8740   22.9200 C   0  0  0  0  0  0  0  0  0  0  0  0
   12.6540   14.3080   24.3160 C   0  0  0  0  0  0  0  0  0  0  0  0
   11.7740   15.0690   25.2830 C   0  0  0  0  0  0  0  0  0  0  0  0
   12.1760   12.8950   24.0850 C   0  0  0  0  0  0  0  0  0  0  0  0
   14.0220   14.1410   24.9650 C   0  0  0  0  0  0  0  0  0  0  0  0
    9.2290   10.3650   23.5830 N   0  0  0  0  0  0  0  0  0  0  0  0
   10.1100    9.5710   22.7620 C   0  0  0  0  0  0  0  0  0  0  0  0
   11.0040    8.7220   23.3080 C   0  0  0  0  0  0  0  0  0  0  0  0
    9.4670    8.5240   22.3360 C   0  0  0  0  0  0  0  0  0  0  0  0
    8.3250    9.8650   24.5260 N   0  0  0  0  0  0  0  0  0  0  0  0
  1  2  1  0
  2  3  1  0
  3  4  2  0
  4  5  1  0
  5  6  1  0
  6  7  2  0
  6  8  1  0
  8  9  2  3
  9 10  1  0
 10 11  1  0
 10 12  1  0
 10 13  1  0
  4 14  1  0
 14 15  1  0
 15 16  1  0
 15 17  1  0
 14 18  1  0
 18  2  2  0
A    1
 C1 
A    2
 C2 
A    3
 C3 
A    4
 C4 
A    5
 N1 
A    6
 C5 
A    7
 O1 
A    8
 C6 
A    9
 C7 
A   10
 C8 
A   11
 C9 
A   12
 C10
A   13
 C11
A   14
 N2 
A   15
 C12
A   16
 C13
A   17
 C14
A   18
 N3 
M  END
>  <similarity>  (97) 
1.0

>  <smiles>  (97) 
Cc1cc(NC(=O)C=CC(C)(C)C)n(C(C)C)n1

>  <cmpd_id>  (97) 
ENAMINE:Z3716279591

>  <used_subnode>  (97) 
c1cn[nH]c1

>  <used_synthon>  (97) 
CC(C)(C)C=CC(=O)N[Xe]

>  <ref_subnode>  (97) 
c1cn[nH]c1

>  <ref_synthon>  (97) 
N#CCC(=O)N[Xe]

>  <fragmentA>  (97) 
x0556_0A

>  <fragmentB>  (97) 
x0310_0A

>  <HA>  (97) 
18

>  <HBD>  (97) 
1

>  <HBA>  (97) 
3

>  <MW>  (97) 
249.18411235599999

>  <TPSA>  (97) 
46.92

>  <LogP>  (97) 
3.313220000000002

>  <RBs>  (97) 
3

>  <G_bound>  (97) 
-8.92504410721477

>  <G_unbound>  (97) 
-0.012352123934047238

>  <deltaG>  (97) 
-8.912691983280723

>  <comRMSD>  (97) 
0.9568566061708154

>  <UFFGibbs>  (97) 
9831.386994804563

>  <strain_per_HA>  (97) 
546.1881663780313

>  <substructure_overlap_check>  (97) 
True

>  <energy_ratio_check>  (97) 
True

>  <const_energy/unconst_energy>  (97) 
1.146651431029658

>  <sucos>  (97) 
0.5352798491139563

>  <interactions>  (97) 
HBDonor_SER-125,Hydrophobic_GLU-88,Hydrophobic_HIS-21,Hydrophobic_PRO-107,Hydrophobic_CYS-110,Hydrophobic_VAL-124,Hydrophobic_TYR-89,Hydrophobic_ASP-109

>  <total_num_ints>  (97) 
8

>  <total_num_ints_nonhyd>  (97) 
1

>  <num_uniq_frag_ints>  (97) 
1

>  <num_repl_uniq_ints>  (97) 
1

>  <num_uniq_ints_lost>  (97) 
0

>  <num_new_uniq_ints>  (97) 
7

>  <int_check>  (97) 
True

>  <ref_url>  (97) 
https://pubs.acs.org/doi/10.1021/acs.jcim.3c00276?fig=tgr1&ref=pdf

>  <submitter_name>  (97) 
Steph Wills

>  <submitter_institution>  (97) 
University of Oxford

>  <submitter_email>  (97) 
stephanie.wills@balliol.ox.ac.uk

>  <generation_date>  (97) 
2023-11-23

>  <method>  (97) 
FragNetv2

>  <original SMILES>  (97) 
Cc1cc(NC(=O)C=CC(C)(C)C)n(C(C)C)n1

>  <original_name>  (97) 
x0556_0A-x0310_0A_12331_B1X

>  <ref_mols>  (97) 
x0556_0A,x0310_0A

>  <ref_pdb>  (97) 
x0310_0A

>  <rationale>  (97) 
FragNet: 1 round bioisosteric merging incl c1cn[nH]c1 and CC(C)(C)C=CC(=O)N[Xe] replacing N#CCC(=O)N[Xe]

$$$$
x0556_0A-x0310_0A_238_PXX
     RDKit          3D

 18 19  0  0  0  0  0  0  0  0999 V2000
   12.1210   16.1230   22.6090 N   0  0  0  0  0  0  0  0  0  0  0  0
   12.0990   14.9740   22.7110 C   0  0  0  0  0  0  0  0  0  0  0  0
   12.0450   13.5190   22.7870 C   0  0  0  0  0  0  0  0  0  0  0  0
   10.8190   13.0760   23.5510 C   0  0  0  0  0  0  0  0  0  0  0  0
   10.4640   13.6450   24.5740 O   0  0  0  0  0  0  0  0  0  0  0  0
   10.1180   11.9850   23.0530 N   0  0  0  0  0  0  0  0  0  0  0  0
    9.0670   11.3670   23.8910 C   0  0  0  0  0  0  0  0  0  0  0  0
    8.1430   12.3520   24.5770 C   0  0  0  0  0  0  0  0  0  0  0  0
    7.2180   11.4500   25.3550 C   0  0  0  0  0  0  0  0  0  0  0  0
    6.0720   11.8020   26.2560 C   0  0  0  0  0  0  0  0  0  0  0  0
    5.9570   10.9900   27.5300 C   0  0  0  0  0  0  0  0  0  0  0  0
    6.4760   11.6540   28.7840 C   0  0  0  0  0  0  0  0  0  0  0  0
    6.3260   10.7780   29.9710 C   0  0  0  0  0  0  0  0  0  0  0  0
    5.7930    9.5030   30.0440 C   0  0  0  0  0  0  0  0  0  0  0  0
    5.3410    9.0040   28.8040 C   0  0  0  0  0  0  0  0  0  0  0  0
    5.4160    9.7130   27.5940 C   0  0  0  0  0  0  0  0  0  0  0  0
    7.6990   10.1090   25.0300 N   0  0  0  0  0  0  0  0  0  0  0  0
    8.7700   10.0900   24.1780 N   0  0  0  0  0  0  0  0  0  0  0  0
  1  2  3  0
  2  3  1  0
  3  4  1  0
  4  5  2  0
  4  6  1  0
  6  7  1  0
  7  8  1  0
  8  9  2  0
  9 10  1  0
 10 11  1  0
 11 12  2  0
 12 13  1  0
 13 14  2  0
 14 15  1  0
 15 16  2  0
  9 17  1  0
 17 18  1  0
 18  7  2  0
 16 11  1  0
A    1
 N1 
A    2
 C1 
A    3
 C2 
A    4
 C3 
A    5
 O1 
A    6
 N2 
A    7
 C4 
A    8
 C5 
A    9
 C6 
A   10
 C7 
A   11
 C8 
A   12
 C9 
A   13
 C10
A   14
 C11
A   15
 C12
A   16
 C13
A   17
 N3 
A   18
 N4 
M  END
>  <similarity>  (98) 
NA

>  <smiles>  (98) 
N#CCC(=O)Nc1cc(Cc2ccccc2)[nH]n1

>  <cmpd_id>  (98) 
ENAMINE:PV-002778506714

>  <used_subnode>  (98) 
NA

>  <used_synthon>  (98) 
NA

>  <ref_subnode>  (98) 
c1cn[nH]c1

>  <ref_synthon>  (98) 
N#CCC(=O)N[Xe]

>  <fragmentA>  (98) 
x0556_0A

>  <fragmentB>  (98) 
x0310_0A

>  <HA>  (98) 
18

>  <HBD>  (98) 
2

>  <HBA>  (98) 
3

>  <MW>  (98) 
240.101111004

>  <TPSA>  (98) 
81.57000000000001

>  <LogP>  (98) 
1.8526799999999997

>  <RBs>  (98) 
4

>  <G_bound>  (98) 
-6.745313191534311

>  <G_unbound>  (98) 
0.5832703567877171

>  <deltaG>  (98) 
-7.328583548322029

>  <comRMSD>  (98) 
0.3903066423125473

>  <substructure_overlap_check>  (98) 
True

>  <energy_ratio_check>  (98) 
True

>  <const_energy/unconst_energy>  (98) 
2.3576244037715317

>  <sucos>  (98) 
0.535381897551981

>  <interactions>  (98) 
Hydrophobic_HIS-21,Hydrophobic_PRO-107,HBDonor_SER-125,HBDonor_SER-105,Hydrophobic_GLU-106

>  <total_num_ints>  (98) 
5

>  <total_num_ints_nonhyd>  (98) 
2

>  <num_uniq_frag_ints>  (98) 
1

>  <num_repl_uniq_ints>  (98) 
1

>  <num_uniq_ints_lost>  (98) 
0

>  <num_new_uniq_ints>  (98) 
4

>  <int_check>  (98) 
True

>  <ref_url>  (98) 
https://pubs.acs.org/doi/10.1021/acs.jcim.3c00276?fig=tgr1&ref=pdf

>  <submitter_name>  (98) 
Steph Wills

>  <submitter_institution>  (98) 
University of Oxford

>  <submitter_email>  (98) 
stephanie.wills@balliol.ox.ac.uk

>  <generation_date>  (98) 
2023-11-23

>  <method>  (98) 
FragNetv2

>  <original SMILES>  (98) 
N#CCC(=O)Nc1cc(Cc2ccccc2)[nH]n1

>  <original_name>  (98) 
x0556_0A-x0310_0A_238_PXX

>  <ref_mols>  (98) 
x0556_0A,x0310_0A

>  <ref_pdb>  (98) 
x0310_0A

>  <rationale>  (98) 
FragNet: perfect merge incl c1cn[nH]c1,N#CCC(=O)N[Xe]

$$$$
x0556_0A-x0310_0A_24348_B1X_rgrp-0
     RDKit          3D

 15 15  0  0  0  0  0  0  0  0999 V2000
   12.0100   16.2920   21.9670 C   0  0  0  0  0  0  0  0  0  0  0  0
   11.9920   15.5100   23.2100 C   0  0  0  0  0  0  0  0  0  0  0  0
   11.8820   14.1560   23.2530 C   0  0  0  0  0  0  0  0  0  0  0  0
   12.0660   13.7890   21.9120 C   0  0  0  0  0  0  0  0  0  0  0  0
   12.9630   13.6660   24.2060 C   0  0  0  0  0  0  0  0  0  0  0  0
   10.5140   13.6590   23.7540 C   0  0  0  0  0  0  0  0  0  0  0  0
   10.0240   14.0860   24.7950 O   0  0  0  0  0  0  0  0  0  0  0  0
    9.9060   12.6990   22.9680 N   0  0  0  0  0  0  0  0  0  0  0  0
    9.2060   11.6170   23.6310 C   0  0  0  0  0  0  0  0  0  0  0  0
    8.1090   11.9460   24.6120 C   0  0  0  0  0  0  0  0  0  0  0  0
    7.7190   13.3810   24.9100 C   0  0  0  0  0  0  0  0  0  0  0  0
    7.6650   10.6990   25.0580 C   0  0  0  0  0  0  0  0  0  0  0  0
    8.3440    9.6950   24.4700 N   0  0  0  0  0  0  0  0  0  0  0  0
    9.2540   10.2510   23.6220 N   0  0  0  0  0  0  0  0  0  0  0  0
   10.0790    9.3890   22.8830 C   0  0  0  0  0  0  0  0  0  0  0  0
  1  2  3  0
  2  3  1  0
  3  4  1  0
  3  5  1  0
  3  6  1  0
  6  7  2  0
  6  8  1  0
  8  9  1  0
  9 10  2  0
 10 11  1  0
 10 12  1  0
 12 13  2  0
 13 14  1  0
 14 15  1  0
 14  9  1  0
A    1
 C1 
A    2
 C2 
A    3
 C3 
A    4
 C4 
A    5
 C5 
A    6
 C6 
A    7
 O1 
A    8
 N1 
A    9
 C7 
A   10
 C8 
A   11
 C9 
A   12
 C10
A   13
 N2 
A   14
 N3 
A   15
 C11
M  END
>  <similarity>  (99) 
1.0

>  <smiles>  (99) 
C#CC(C)(C)C(=O)Nc1c(C)cnn1C

>  <cmpd_id>  (99) 
ENAMINE:Z3583364875

>  <used_subnode>  (99) 
c1cn[nH]c1

>  <used_synthon>  (99) 
C#CC(C)(C)C(=O)N[Xe]

>  <ref_subnode>  (99) 
c1cn[nH]c1

>  <ref_synthon>  (99) 
N#CCC(=O)N[Xe]

>  <fragmentA>  (99) 
x0556_0A

>  <fragmentB>  (99) 
x0310_0A

>  <HA>  (99) 
15

>  <HBD>  (99) 
1

>  <HBA>  (99) 
3

>  <MW>  (99) 
205.1215121

>  <TPSA>  (99) 
46.92

>  <LogP>  (99) 
1.3264199999999997

>  <RBs>  (99) 
2

>  <G_bound>  (99) 
-11.372533422319943

>  <G_unbound>  (99) 
-0.06959725525156861

>  <deltaG>  (99) 
-11.302936167068374

>  <comRMSD>  (99) 
0.22018407173200832

>  <substructure_overlap_check>  (99) 
True

>  <energy_ratio_check>  (99) 
True

>  <const_energy/unconst_energy>  (99) 
6.329167887004325

>  <sucos>  (99) 
0.5376718097430155

>  <interactions>  (99) 
Hydrophobic_PRO-107,Hydrophobic_HIS-21,Hydrophobic_TYR-89,HBDonor_SER-125

>  <total_num_ints>  (99) 
4

>  <total_num_ints_nonhyd>  (99) 
1

>  <num_uniq_frag_ints>  (99) 
1

>  <num_repl_uniq_ints>  (99) 
1

>  <num_uniq_ints_lost>  (99) 
0

>  <num_new_uniq_ints>  (99) 
3

>  <int_check>  (99) 
True

>  <ref_url>  (99) 
https://pubs.acs.org/doi/10.1021/acs.jcim.3c00276?fig=tgr1&ref=pdf

>  <submitter_name>  (99) 
Steph Wills

>  <submitter_institution>  (99) 
University of Oxford

>  <submitter_email>  (99) 
stephanie.wills@balliol.ox.ac.uk

>  <generation_date>  (99) 
2023-11-23

>  <method>  (99) 
FragNetv2

>  <original SMILES>  (99) 
C#CC(C)(C)C(=O)Nc1c(C)cnn1C

>  <original_name>  (99) 
x0556_0A-x0310_0A_24348_B1X_rgrp-0

>  <ref_mols>  (99) 
x0556_0A,x0310_0A

>  <ref_pdb>  (99) 
x0310_0A

>  <rationale>  (99) 
FragNet: 1 round bioisosteric merging incl c1cn[nH]c1 and C#CC(C)(C)C(=O)N[Xe] replacing N#CCC(=O)N[Xe]

$$$$
x0556_0A-x0310_0A_12337_B1X
     RDKit          3D

 18 18  0  0  0  0  0  0  0  0999 V2000
    6.4320   11.0840   26.4180 C   0  0  0  0  0  0  0  0  0  0  0  0
    7.4860   10.9050   25.3390 C   0  0  0  0  0  0  0  0  0  0  0  0
    8.1540   12.0510   24.6580 C   0  0  0  0  0  0  0  0  0  0  0  0
    9.1100   11.4860   23.6660 C   0  0  0  0  0  0  0  0  0  0  0  0
    9.9200   12.2110   22.8240 N   0  0  0  0  0  0  0  0  0  0  0  0
   10.7520   13.1760   23.2410 C   0  0  0  0  0  0  0  0  0  0  0  0
   10.6440   13.6610   24.3660 O   0  0  0  0  0  0  0  0  0  0  0  0
   11.7640   13.6630   22.3980 C   0  0  0  0  0  0  0  0  0  0  0  0
   12.7350   14.6440   22.9530 C   0  0  1  0  0  0  0  0  0  0  0  0
   12.1090   15.8240   22.6810 C   0  0  0  0  0  0  0  0  0  0  0  0
   12.8820   14.2630   24.4300 C   0  0  0  0  0  0  0  0  0  0  0  0
   12.1220   15.0410   25.2460 F   0  0  0  0  0  0  0  0  0  0  0  0
   14.1620   14.2850   24.8740 F   0  0  0  0  0  0  0  0  0  0  0  0
    8.9120   10.1340   23.8570 N   0  0  0  0  0  0  0  0  0  0  0  0
    9.4640    9.0390   23.2300 C   0  0  0  0  0  0  0  0  0  0  0  0
   10.0250    9.3650   21.9660 C   0  0  0  0  0  0  0  0  0  0  0  0
   10.8350    8.5700   23.3800 C   0  0  0  0  0  0  0  0  0  0  0  0
    7.9850    9.7630   24.8210 N   0  0  0  0  0  0  0  0  0  0  0  0
  1  2  1  0
  2  3  1  0
  3  4  2  0
  4  5  1  0
  5  6  1  0
  6  7  2  0
  6  8  1  0
  8  9  1  0
  9 10  1  1
  9 11  1  0
 11 12  1  0
 11 13  1  0
  4 14  1  0
 14 15  1  0
 15 16  1  0
 15 17  1  0
 14 18  1  0
 18  2  2  0
A    1
 C1 
A    2
 C2 
A    3
 C3 
A    4
 C4 
A    5
 N1 
A    6
 C5 
A    7
 O1 
A    8
 C6 
A    9
 C7 
A   10
 C8 
A   11
 C9 
A   12
 F1 
A   13
 F2 
A   14
 N2 
A   15
 C10
A   16
 C11
A   17
 C12
A   18
 N3 
M  END
>  <similarity>  (100) 
1.0

>  <smiles>  (100) 
Cc1cc(NC(=O)CC(C)C(F)F)n(C(C)C)n1

>  <cmpd_id>  (100) 
ENAMINE:Z3716287463

>  <used_subnode>  (100) 
c1cn[nH]c1

>  <used_synthon>  (100) 
CC(CC(=O)N[Xe])C(F)F

>  <ref_subnode>  (100) 
c1cn[nH]c1

>  <ref_synthon>  (100) 
N#CCC(=O)N[Xe]

>  <fragmentA>  (100) 
x0556_0A

>  <fragmentB>  (100) 
x0310_0A

>  <HA>  (100) 
18

>  <HBD>  (100) 
1

>  <HBA>  (100) 
3

>  <MW>  (100) 
259.149618668

>  <TPSA>  (100) 
46.92

>  <LogP>  (100) 
3.002220000000001

>  <RBs>  (100) 
5

>  <G_bound>  (100) 
-4.618417844856134

>  <G_unbound>  (100) 
0.14311404738714262

>  <deltaG>  (100) 
-4.761531892243277

>  <comRMSD>  (100) 
0.399233685408225

>  <UFFGibbs>  (100) 
1136827.2591185872

>  <strain_per_HA>  (100) 
63157.06995103262

>  <substructure_overlap_check>  (100) 
True

>  <energy_ratio_check>  (100) 
True

>  <const_energy/unconst_energy>  (100) 
1.0671763176927171

>  <sucos>  (100) 
0.5395647098156512

>  <interactions>  (100) 
HBDonor_SER-125,Hydrophobic_TYR-90,Hydrophobic_HIS-21,Hydrophobic_PRO-107,Hydrophobic_CYS-110,Hydrophobic_VAL-124,Hydrophobic_TYR-89,Hydrophobic_ASP-109

>  <total_num_ints>  (100) 
8

>  <total_num_ints_nonhyd>  (100) 
1

>  <num_uniq_frag_ints>  (100) 
1

>  <num_repl_uniq_ints>  (100) 
1

>  <num_uniq_ints_lost>  (100) 
0

>  <num_new_uniq_ints>  (100) 
7

>  <int_check>  (100) 
True

>  <ref_url>  (100) 
https://pubs.acs.org/doi/10.1021/acs.jcim.3c00276?fig=tgr1&ref=pdf

>  <submitter_name>  (100) 
Steph Wills

>  <submitter_institution>  (100) 
University of Oxford

>  <submitter_email>  (100) 
stephanie.wills@balliol.ox.ac.uk

>  <generation_date>  (100) 
2023-11-23

>  <method>  (100) 
FragNetv2

>  <original SMILES>  (100) 
Cc1cc(NC(=O)CC(C)C(F)F)n(C(C)C)n1

>  <original_name>  (100) 
x0556_0A-x0310_0A_12337_B1X

>  <ref_mols>  (100) 
x0556_0A,x0310_0A

>  <ref_pdb>  (100) 
x0310_0A

>  <rationale>  (100) 
FragNet: 1 round bioisosteric merging incl c1cn[nH]c1 and CC(CC(=O)N[Xe])C(F)F replacing N#CCC(=O)N[Xe]

$$$$
x0556_0A-x0310_0A_27202_B1X
     RDKit          3D

 20 20  0  0  0  0  0  0  0  0999 V2000
   11.9180   13.7620   22.5430 C   0  0  0  0  0  0  0  0  0  0  0  0
   10.8480   13.3290   23.5570 C   0  0  0  0  0  0  0  0  0  0  0  0
   10.8020   13.7890   24.6920 O   0  0  0  0  0  0  0  0  0  0  0  0
    9.9110   12.3330   23.0400 N   0  0  0  0  0  0  0  0  0  0  0  0
    8.9870   11.7070   23.8530 C   0  0  0  0  0  0  0  0  0  0  0  0
    8.8820   10.3510   24.1060 N   0  0  0  0  0  0  0  0  0  0  0  0
    7.8960    9.9870   24.9510 N   0  0  0  0  0  0  0  0  0  0  0  0
    7.3200   11.1730   25.2730 C   0  0  0  0  0  0  0  0  0  0  0  0
    6.1630   11.3190   26.1980 C   0  0  0  0  0  0  0  0  0  0  0  0
    5.2250   12.0870   26.0090 O   0  0  0  0  0  0  0  0  0  0  0  0
    6.2220   10.5420   27.3420 N   0  0  0  0  0  0  0  0  0  0  0  0
    5.1200    9.7020   27.7940 C   0  0  0  0  0  0  0  0  0  0  0  0
    4.2450   10.4520   28.7980 C   0  0  1  0  0  0  0  0  0  0  0  0
    2.8690   10.3510   28.3700 O   0  0  0  0  0  0  0  0  0  0  0  0
    4.4180    9.9600   30.1150 C   0  0  0  0  0  0  0  0  0  0  0  0
    5.6950   10.1110   30.5390 F   0  0  0  0  0  0  0  0  0  0  0  0
    3.6080   10.6120   30.9850 F   0  0  0  0  0  0  0  0  0  0  0  0
    4.1100    8.6420   30.1960 F   0  0  0  0  0  0  0  0  0  0  0  0
    7.9670   12.2420   24.6090 C   0  0  0  0  0  0  0  0  0  0  0  0
    7.5180   14.0490   24.7430 Br  0  0  0  0  0  0  0  0  0  0  0  0
  1  2  1  0
  2  3  2  0
  2  4  1  0
  4  5  1  0
  5  6  1  0
  6  7  1  0
  7  8  2  0
  8  9  1  0
  9 10  2  0
  9 11  1  0
 11 12  1  0
 12 13  1  0
 13 14  1  6
 13 15  1  0
 15 16  1  0
 15 17  1  0
 15 18  1  0
  8 19  1  0
 19 20  1  0
 19  5  2  0
A    1
 C1 
A    2
 C2 
A    3
 O1 
A    4
 N1 
A    5
 C3 
A    6
 N2 
A    7
 N3 
A    8
 C4 
A    9
 C5 
A   10
 O2 
A   11
 N4 
A   12
 C6 
A   13
 C7 
A   14
 O3 
A   15
 C8 
A   16
 F1 
A   17
 F2 
A   18
 F3 
A   19
 C9 
A   20
BR1 
M  END
>  <similarity>  (101) 
1.0

>  <smiles>  (101) 
CC(=O)Nc1[nH]nc(C(=O)NCC(O)C(F)(F)F)c1Br

>  <cmpd_id>  (101) 
ENAMINE:PV-003204510869

>  <used_subnode>  (101) 
c1cn[nH]c1

>  <used_synthon>  (101) 
CC(=O)N[Xe]

>  <ref_subnode>  (101) 
c1cn[nH]c1

>  <ref_synthon>  (101) 
N#CCC(=O)N[Xe]

>  <fragmentA>  (101) 
x0556_0A

>  <fragmentB>  (101) 
x0310_0A

>  <HA>  (101) 
20

>  <HBD>  (101) 
4

>  <HBA>  (101) 
4

>  <MW>  (101) 
357.98883694

>  <TPSA>  (101) 
107.11

>  <LogP>  (101) 
0.7835999999999994

>  <RBs>  (101) 
4

>  <G_bound>  (101) 
-4.043747624116778

>  <G_unbound>  (101) 
1.2137665757294394

>  <deltaG>  (101) 
-5.2575141998462165

>  <comRMSD>  (101) 
0.5175538788591716

>  <UFFGibbs>  (101) 
48.12220495597559

>  <strain_per_HA>  (101) 
2.4061102477987797

>  <substructure_overlap_check>  (101) 
True

>  <energy_ratio_check>  (101) 
True

>  <const_energy/unconst_energy>  (101) 
1.0403311397814863

>  <sucos>  (101) 
0.5395688719711784

>  <interactions>  (101) 
HBDonor_SER-125,Hydrophobic_HIS-21,Hydrophobic_PRO-107

>  <total_num_ints>  (101) 
3

>  <total_num_ints_nonhyd>  (101) 
1

>  <num_uniq_frag_ints>  (101) 
1

>  <num_repl_uniq_ints>  (101) 
1

>  <num_uniq_ints_lost>  (101) 
0

>  <num_new_uniq_ints>  (101) 
2

>  <int_check>  (101) 
True

>  <ref_url>  (101) 
https://pubs.acs.org/doi/10.1021/acs.jcim.3c00276?fig=tgr1&ref=pdf

>  <submitter_name>  (101) 
Steph Wills

>  <submitter_institution>  (101) 
University of Oxford

>  <submitter_email>  (101) 
stephanie.wills@balliol.ox.ac.uk

>  <generation_date>  (101) 
2023-11-23

>  <method>  (101) 
FragNetv2

>  <original SMILES>  (101) 
CC(=O)Nc1[nH]nc(C(=O)NCC(O)C(F)(F)F)c1Br

>  <original_name>  (101) 
x0556_0A-x0310_0A_27202_B1X

>  <ref_mols>  (101) 
x0556_0A,x0310_0A

>  <ref_pdb>  (101) 
x0310_0A

>  <rationale>  (101) 
FragNet: 1 round bioisosteric merging incl c1cn[nH]c1 and CC(=O)N[Xe] replacing N#CCC(=O)N[Xe]

$$$$
x0556_0A-x0310_0A_6268_B1X
     RDKit          3D

 17 17  0  0  0  0  0  0  0  0999 V2000
    7.0810   14.2080   23.3000 C   0  0  0  0  0  0  0  0  0  0  0  0
    7.3450   13.5760   24.9810 S   0  0  0  0  0  0  0  0  0  0  0  0
    8.0540   11.9650   24.5180 C   0  0  0  0  0  0  0  0  0  0  0  0
    7.5110   10.6900   25.1230 C   0  0  0  0  0  0  0  0  0  0  0  0
    8.1960    9.6240   24.6150 N   0  0  0  0  0  0  0  0  0  0  0  0
    9.1130   10.1780   23.7430 N   0  0  0  0  0  0  0  0  0  0  0  0
   10.0060    9.3000   23.0150 C   0  0  0  0  0  0  0  0  0  0  0  0
    9.0650   11.5740   23.6630 C   0  0  0  0  0  0  0  0  0  0  0  0
    9.8300   12.4400   22.9160 N   0  0  0  0  0  0  0  0  0  0  0  0
   10.7400   13.2860   23.4510 C   0  0  0  0  0  0  0  0  0  0  0  0
   10.6100   13.9150   24.4960 O   0  0  0  0  0  0  0  0  0  0  0  0
   12.0000   13.3810   22.6180 C   0  0  2  0  0  0  0  0  0  0  0  0
   12.5940   12.1480   22.9020 C   0  0  0  0  0  0  0  0  0  0  0  0
   12.7780   14.6140   22.9890 C   0  0  0  0  0  0  0  0  0  0  0  0
   11.8590   15.7050   23.3210 C   0  0  0  0  0  0  0  0  0  0  0  0
   13.4290   15.1380   21.9380 F   0  0  0  0  0  0  0  0  0  0  0  0
   13.6010   14.3780   24.0490 F   0  0  0  0  0  0  0  0  0  0  0  0
  1  2  1  0
  2  3  1  0
  3  4  1  0
  4  5  2  0
  5  6  1  0
  6  7  1  0
  6  8  1  0
  8  9  1  0
  9 10  1  0
 10 11  2  0
 10 12  1  0
 12 13  1  1
 12 14  1  0
 14 15  1  0
 14 16  1  0
 14 17  1  0
  8  3  2  0
A    1
 C1 
A    2
 S1 
A    3
 C2 
A    4
 C3 
A    5
 N1 
A    6
 N2 
A    7
 C4 
A    8
 C5 
A    9
 N3 
A   10
 C6 
A   11
 O1 
A   12
 C7 
A   13
 C8 
A   14
 C9 
A   15
 C10
A   16
 F1 
A   17
 F2 
M  END
>  <similarity>  (102) 
1.0

>  <smiles>  (102) 
CSc1cnn(C)c1NC(=O)C(C)C(C)(F)F

>  <cmpd_id>  (102) 
ENAMINE:Z4220840087

>  <used_subnode>  (102) 
c1cn[nH]c1

>  <used_synthon>  (102) 
CC(C(=O)N[Xe])C(C)(F)F

>  <ref_subnode>  (102) 
c1cn[nH]c1

>  <ref_synthon>  (102) 
N#CCC(=O)N[Xe]

>  <fragmentA>  (102) 
x0556_0A

>  <fragmentB>  (102) 
x0310_0A

>  <HA>  (102) 
17

>  <HBD>  (102) 
1

>  <HBA>  (102) 
4

>  <MW>  (102) 
263.09038954

>  <TPSA>  (102) 
46.92

>  <LogP>  (102) 
2.3718000000000004

>  <RBs>  (102) 
4

>  <G_bound>  (102) 
-8.312855156157315

>  <G_unbound>  (102) 
0.9668979712165332

>  <deltaG>  (102) 
-9.279753127373848

>  <comRMSD>  (102) 
0.5047594050934385

>  <UFFGibbs>  (102) 
116.43412825250846

>  <strain_per_HA>  (102) 
6.849066367794615

>  <substructure_overlap_check>  (102) 
True

>  <energy_ratio_check>  (102) 
True

>  <const_energy/unconst_energy>  (102) 
0.9527446666307268

>  <sucos>  (102) 
0.5401732753239454

>  <interactions>  (102) 
Hydrophobic_VAL-84,HBDonor_SER-125,Hydrophobic_HIS-21,Hydrophobic_PRO-107,Hydrophobic_CYS-110,Hydrophobic_TYR-89

>  <total_num_ints>  (102) 
6

>  <total_num_ints_nonhyd>  (102) 
1

>  <num_uniq_frag_ints>  (102) 
1

>  <num_repl_uniq_ints>  (102) 
1

>  <num_uniq_ints_lost>  (102) 
0

>  <num_new_uniq_ints>  (102) 
5

>  <int_check>  (102) 
True

>  <ref_url>  (102) 
https://pubs.acs.org/doi/10.1021/acs.jcim.3c00276?fig=tgr1&ref=pdf

>  <submitter_name>  (102) 
Steph Wills

>  <submitter_institution>  (102) 
University of Oxford

>  <submitter_email>  (102) 
stephanie.wills@balliol.ox.ac.uk

>  <generation_date>  (102) 
2023-11-23

>  <method>  (102) 
FragNetv2

>  <original SMILES>  (102) 
CSc1cnn(C)c1NC(=O)C(C)C(C)(F)F

>  <original_name>  (102) 
x0556_0A-x0310_0A_6268_B1X

>  <ref_mols>  (102) 
x0556_0A,x0310_0A

>  <ref_pdb>  (102) 
x0310_0A

>  <rationale>  (102) 
FragNet: 1 round bioisosteric merging incl c1cn[nH]c1 and CC(C(=O)N[Xe])C(C)(F)F replacing N#CCC(=O)N[Xe]

$$$$
x0556_0A-x0310_0A_30272_B1X
     RDKit          3D

 22 22  0  0  0  0  0  0  0  0999 V2000
   11.9280   13.6170   22.7450 C   0  0  0  0  0  0  0  0  0  0  0  0
   10.7470   13.2920   23.6440 C   0  0  0  0  0  0  0  0  0  0  0  0
   10.8410   13.8710   24.9420 O   0  0  0  0  0  0  0  0  0  0  0  0
    9.6700   12.4720   23.1250 N   0  0  0  0  0  0  0  0  0  0  0  0
    8.7990   11.7760   23.9590 C   0  0  0  0  0  0  0  0  0  0  0  0
    8.7760   10.3910   24.1810 N   0  0  0  0  0  0  0  0  0  0  0  0
    7.8460    9.9210   25.0290 N   0  0  0  0  0  0  0  0  0  0  0  0
    7.2140   11.0460   25.3990 C   0  0  0  0  0  0  0  0  0  0  0  0
    6.0390   10.8600   26.4150 C   0  0  0  0  0  0  0  0  0  0  0  0
    5.2670   11.8070   26.6170 O   0  0  0  0  0  0  0  0  0  0  0  0
    5.7820    9.6910   27.1300 N   0  0  0  0  0  0  0  0  0  0  0  0
    4.5590    9.3360   27.5620 C   0  0  0  0  0  0  0  0  0  0  0  0
    4.5700    8.2970   28.6810 C   0  0  0  0  0  0  0  0  0  0  0  0
    4.2040    6.9470   28.1460 N   0  0  0  0  0  0  0  0  0  0  0  0
    4.4960    5.9390   28.9850 C   0  0  0  0  0  0  0  0  0  0  0  0
    5.9330    5.4190   28.8880 C   0  0  0  0  0  0  0  0  0  0  0  0
    3.7590    4.8050   28.7400 C   0  0  0  0  0  0  0  0  0  0  0  0
    2.8930    6.8530   27.4180 C   0  0  0  0  0  0  0  0  0  0  0  0
    1.8840    7.9760   27.7550 C   0  0  0  0  0  0  0  0  0  0  0  0
    3.0470    6.9240   26.0390 C   0  0  0  0  0  0  0  0  0  0  0  0
    7.7680   12.2040   24.7610 C   0  0  0  0  0  0  0  0  0  0  0  0
    7.2260   13.9650   24.9570 Br  0  0  0  0  0  0  0  0  0  0  0  0
  1  2  1  0
  2  3  2  0
  2  4  1  0
  4  5  1  0
  5  6  1  0
  6  7  1  0
  7  8  2  0
  8  9  1  0
  9 10  2  0
  9 11  1  0
 11 12  1  0
 12 13  1  0
 13 14  1  0
 14 15  1  0
 15 16  1  0
 15 17  1  0
 14 18  1  0
 18 19  1  0
 18 20  1  0
  8 21  1  0
 21 22  1  0
 21  5  2  0
A    1
 C1 
A    2
 C2 
A    3
 O1 
A    4
 N1 
A    5
 C3 
A    6
 N2 
A    7
 N3 
A    8
 C4 
A    9
 C5 
A   10
 O2 
A   11
 N4 
A   12
 C6 
A   13
 C7 
A   14
 N5 
A   15
 C8 
A   16
 C9 
A   17
 C10
A   18
 C11
A   19
 C12
A   20
 C13
A   21
 C14
A   22
BR1 
M  END
>  <similarity>  (103) 
1.0

>  <smiles>  (103) 
CC(=O)Nc1[nH]nc(C(=O)NCCN(C(C)C)C(C)C)c1Br

>  <cmpd_id>  (103) 
ENAMINE:Z4316019086

>  <used_subnode>  (103) 
c1cn[nH]c1

>  <used_synthon>  (103) 
CC(=O)N[Xe]

>  <ref_subnode>  (103) 
c1cn[nH]c1

>  <ref_synthon>  (103) 
N#CCC(=O)N[Xe]

>  <fragmentA>  (103) 
x0556_0A

>  <fragmentB>  (103) 
x0310_0A

>  <HA>  (103) 
22

>  <HBD>  (103) 
3

>  <HBA>  (103) 
4

>  <MW>  (103) 
373.11133710800004

>  <TPSA>  (103) 
90.11999999999999

>  <LogP>  (103) 
1.9791999999999998

>  <RBs>  (103) 
7

>  <G_bound>  (103) 
-8.722214426114062

>  <G_unbound>  (103) 
0.9365230623656224

>  <deltaG>  (103) 
-9.658737488479685

>  <comRMSD>  (103) 
0.43673483459892953

>  <UFFGibbs>  (103) 
204.0580249911435

>  <strain_per_HA>  (103) 
9.275364772324705

>  <substructure_overlap_check>  (103) 
True

>  <energy_ratio_check>  (103) 
True

>  <const_energy/unconst_energy>  (103) 
1.0932034756838158

>  <sucos>  (103) 
0.5405265632425454

>  <interactions>  (103) 
Hydrophobic_HIS-21,HBDonor_SER-105,Hydrophobic_PRO-107,Hydrophobic_HIS-104,Hydrophobic_GLU-106

>  <total_num_ints>  (103) 
5

>  <total_num_ints_nonhyd>  (103) 
1

>  <num_uniq_frag_ints>  (103) 
1

>  <num_repl_uniq_ints>  (103) 
1

>  <num_uniq_ints_lost>  (103) 
0

>  <num_new_uniq_ints>  (103) 
4

>  <int_check>  (103) 
True

>  <ref_url>  (103) 
https://pubs.acs.org/doi/10.1021/acs.jcim.3c00276?fig=tgr1&ref=pdf

>  <submitter_name>  (103) 
Steph Wills

>  <submitter_institution>  (103) 
University of Oxford

>  <submitter_email>  (103) 
stephanie.wills@balliol.ox.ac.uk

>  <generation_date>  (103) 
2023-11-23

>  <method>  (103) 
FragNetv2

>  <original SMILES>  (103) 
CC(=O)Nc1[nH]nc(C(=O)NCCN(C(C)C)C(C)C)c1Br

>  <original_name>  (103) 
x0556_0A-x0310_0A_30272_B1X

>  <ref_mols>  (103) 
x0556_0A,x0310_0A

>  <ref_pdb>  (103) 
x0310_0A

>  <rationale>  (103) 
FragNet: 1 round bioisosteric merging incl c1cn[nH]c1 and CC(=O)N[Xe] replacing N#CCC(=O)N[Xe]

$$$$
x0556_0A-x0310_0A_6273_B1X
     RDKit          3D

 20 20  0  0  0  0  0  0  0  0999 V2000
    5.8210   12.8940   25.8700 C   0  0  0  0  0  0  0  0  0  0  0  0
    7.3740   13.3360   25.0470 S   0  0  0  0  0  0  0  0  0  0  0  0
    7.9380   11.7630   24.6470 C   0  0  0  0  0  0  0  0  0  0  0  0
    7.5070   10.4470   25.2000 C   0  0  0  0  0  0  0  0  0  0  0  0
    8.1610    9.4400   24.6540 N   0  0  0  0  0  0  0  0  0  0  0  0
    9.0080   10.0300   23.7630 N   0  0  0  0  0  0  0  0  0  0  0  0
    9.8990    9.2480   22.9580 C   0  0  0  0  0  0  0  0  0  0  0  0
    8.9080   11.3950   23.7310 C   0  0  0  0  0  0  0  0  0  0  0  0
    9.6250   12.2420   22.9530 N   0  0  0  0  0  0  0  0  0  0  0  0
   10.5900   12.9550   23.5040 C   0  0  0  0  0  0  0  0  0  0  0  0
   10.6630   13.3040   24.6710 O   0  0  0  0  0  0  0  0  0  0  0  0
   11.6280   13.2960   22.4770 C   0  0  0  0  0  0  0  0  0  0  0  0
   12.7040   13.9530   23.2650 C   0  0  0  0  0  0  0  0  0  0  0  0
   11.8800   15.0790   23.7100 C   0  0  0  0  0  0  0  0  0  0  0  0
   12.0100   16.1990   22.6910 C   0  0  0  0  0  0  0  0  0  0  0  0
   12.0710   15.2090   25.2170 C   0  0  0  0  0  0  0  0  0  0  0  0
   11.0950   14.2500   21.4350 C   0  0  0  0  0  0  0  0  0  0  0  0
   12.1230   14.6490   20.6050 C   0  0  0  0  0  0  0  0  0  0  0  0
   13.1610   15.4690   21.1210 C   0  0  0  0  0  0  0  0  0  0  0  0
   12.9180   13.7950   19.9160 C   0  0  0  0  0  0  0  0  0  0  0  0
  1  2  1  0
  2  3  1  0
  3  4  1  0
  4  5  2  0
  5  6  1  0
  6  7  1  0
  6  8  1  0
  8  9  1  0
  9 10  1  0
 10 11  2  0
 10 12  1  0
 12 13  1  0
 13 14  1  0
 14 15  1  0
 14 16  1  0
 12 17  1  0
 17 18  1  0
 18 19  1  0
 18 20  1  0
  8  3  2  0
A    1
 C1 
A    2
 S1 
A    3
 C2 
A    4
 C3 
A    5
 N1 
A    6
 N2 
A    7
 C4 
A    8
 C5 
A    9
 N3 
A   10
 C6 
A   11
 O1 
A   12
 C7 
A   13
 C8 
A   14
 C9 
A   15
 C10
A   16
 C11
A   17
 C12
A   18
 C13
A   19
 C14
A   20
 C15
M  END
>  <similarity>  (104) 
1.0

>  <smiles>  (104) 
CSc1cnn(C)c1NC(=O)C(CC(C)C)CC(C)C

>  <cmpd_id>  (104) 
ENAMINE:PV-002886689918

>  <used_subnode>  (104) 
c1cn[nH]c1

>  <used_synthon>  (104) 
CC(C)CC(CC(C)C)C(=O)N[Xe]

>  <ref_subnode>  (104) 
c1cn[nH]c1

>  <ref_synthon>  (104) 
N#CCC(=O)N[Xe]

>  <fragmentA>  (104) 
x0556_0A

>  <fragmentB>  (104) 
x0310_0A

>  <HA>  (104) 
20

>  <HBD>  (104) 
1

>  <HBA>  (104) 
4

>  <MW>  (104) 
297.187483484

>  <TPSA>  (104) 
46.92

>  <LogP>  (104) 
3.7889000000000026

>  <RBs>  (104) 
7

>  <G_bound>  (104) 
-7.977787231709951

>  <G_unbound>  (104) 
0.2385325228357925

>  <deltaG>  (104) 
-8.216319754545744

>  <comRMSD>  (104) 
0.717183140346867

>  <UFFGibbs>  (104) 
53527.11959929597

>  <strain_per_HA>  (104) 
2676.3559799647983

>  <substructure_overlap_check>  (104) 
True

>  <energy_ratio_check>  (104) 
True

>  <const_energy/unconst_energy>  (104) 
1.0712332760089183

>  <sucos>  (104) 
0.5406323244783644

>  <interactions>  (104) 
HBDonor_SER-125,Hydrophobic_GLU-88,Hydrophobic_TYR-90,Hydrophobic_HIS-21,Hydrophobic_PRO-107,Hydrophobic_ASP-39,Hydrophobic_TYR-89

>  <total_num_ints>  (104) 
7

>  <total_num_ints_nonhyd>  (104) 
1

>  <num_uniq_frag_ints>  (104) 
1

>  <num_repl_uniq_ints>  (104) 
1

>  <num_uniq_ints_lost>  (104) 
0

>  <num_new_uniq_ints>  (104) 
6

>  <int_check>  (104) 
True

>  <ref_url>  (104) 
https://pubs.acs.org/doi/10.1021/acs.jcim.3c00276?fig=tgr1&ref=pdf

>  <submitter_name>  (104) 
Steph Wills

>  <submitter_institution>  (104) 
University of Oxford

>  <submitter_email>  (104) 
stephanie.wills@balliol.ox.ac.uk

>  <generation_date>  (104) 
2023-11-23

>  <method>  (104) 
FragNetv2

>  <original SMILES>  (104) 
CSc1cnn(C)c1NC(=O)C(CC(C)C)CC(C)C

>  <original_name>  (104) 
x0556_0A-x0310_0A_6273_B1X

>  <ref_mols>  (104) 
x0556_0A,x0310_0A

>  <ref_pdb>  (104) 
x0310_0A

>  <rationale>  (104) 
FragNet: 1 round bioisosteric merging incl c1cn[nH]c1 and CC(C)CC(CC(C)C)C(=O)N[Xe] replacing N#CCC(=O)N[Xe]

$$$$
x0556_0A-x0310_0A_50753_B1X
     RDKit          3D

 20 20  0  0  0  0  0  0  0  0999 V2000
    5.2050    9.5230   27.6420 C   0  0  0  0  0  0  0  0  0  0  0  0
    5.4300   10.0170   26.3290 O   0  0  0  0  0  0  0  0  0  0  0  0
    6.3250   11.1200   26.3540 C   0  0  0  0  0  0  0  0  0  0  0  0
    6.2210   12.0720   27.1180 O   0  0  0  0  0  0  0  0  0  0  0  0
    7.3880   10.9620   25.3420 C   0  0  0  0  0  0  0  0  0  0  0  0
    8.0080   12.1630   24.7150 C   0  0  0  0  0  0  0  0  0  0  0  0
    9.0560   11.7460   23.7430 C   0  0  0  0  0  0  0  0  0  0  0  0
    9.9130   12.4400   22.9280 N   0  0  0  0  0  0  0  0  0  0  0  0
   10.7900   13.3430   23.6060 C   0  0  0  0  0  0  0  0  0  0  0  0
   10.5490   13.9040   24.6660 O   0  0  0  0  0  0  0  0  0  0  0  0
   11.8000   13.4860   23.0110 C   0  0  0  0  0  0  0  0  0  0  0  0
   12.8440   12.8280   23.8590 C   0  0  0  0  0  0  0  0  0  0  0  0
   12.6240   12.3670   22.4450 C   0  0  0  0  0  0  0  0  0  0  0  0
   12.1500   14.7800   22.7780 C   0  0  0  0  0  0  0  0  0  0  0  0
   12.3270   15.3140   21.5060 C   0  0  0  0  0  0  0  0  0  0  0  0
   11.8630   16.7030   21.6490 C   0  0  0  0  0  0  0  0  0  0  0  0
   13.5290   15.6780   21.0750 C   0  0  0  0  0  0  0  0  0  0  0  0
    9.0520   10.3120   23.7890 N   0  0  0  0  0  0  0  0  0  0  0  0
    9.8620    9.3750   23.0500 C   0  0  0  0  0  0  0  0  0  0  0  0
    8.0750    9.9060   24.7260 N   0  0  0  0  0  0  0  0  0  0  0  0
  1  2  1  0
  2  3  1  0
  3  4  2  0
  3  5  1  0
  5  6  1  0
  6  7  2  0
  7  8  1  0
  8  9  1  0
  9 10  2  0
  9 11  1  0
 11 12  1  0
 11 13  1  0
 11 14  1  0
 14 15  1  0
 15 16  1  0
 15 17  1  0
  7 18  1  0
 18 19  1  0
 18 20  1  0
 20  5  2  0
A    1
 C1 
A    2
 O1 
A    3
 C2 
A    4
 O2 
A    5
 C3 
A    6
 C4 
A    7
 C5 
A    8
 N1 
A    9
 C6 
A   10
 O3 
A   11
 C7 
A   12
 C8 
A   13
 C9 
A   14
 C10
A   15
 C11
A   16
 C12
A   17
 C13
A   18
 N2 
A   19
 C14
A   20
 N3 
M  END
>  <similarity>  (105) 
1.0

>  <smiles>  (105) 
COC(=O)c1cc(NC(=O)C(C)(C)CC(C)C)n(C)n1

>  <cmpd_id>  (105) 
ENAMINE:Z3087212791

>  <used_subnode>  (105) 
c1cn[nH]c1

>  <used_synthon>  (105) 
CC(C)CC(C)(C)C(=O)N[Xe]

>  <ref_subnode>  (105) 
c1cn[nH]c1

>  <ref_synthon>  (105) 
N#CCC(=O)N[Xe]

>  <fragmentA>  (105) 
x0556_0A

>  <fragmentB>  (105) 
x0310_0A

>  <HA>  (105) 
20

>  <HBD>  (105) 
1

>  <HBA>  (105) 
5

>  <MW>  (105) 
281.173941596

>  <TPSA>  (105) 
73.22

>  <LogP>  (105) 
2.2175000000000002

>  <RBs>  (105) 
5

>  <G_bound>  (105) 
-11.989495596375093

>  <G_unbound>  (105) 
-0.09602313629667328

>  <deltaG>  (105) 
-11.893472460078419

>  <comRMSD>  (105) 
0.6853276269487157

>  <UFFGibbs>  (105) 
33702.867882376784

>  <strain_per_HA>  (105) 
1685.1433941188393

>  <substructure_overlap_check>  (105) 
True

>  <energy_ratio_check>  (105) 
True

>  <const_energy/unconst_energy>  (105) 
0.9154173826268581

>  <sucos>  (105) 
0.5409399987832564

>  <interactions>  (105) 
HBDonor_SER-125,Hydrophobic_TYR-90,Hydrophobic_HIS-21,Hydrophobic_PRO-107,Hydrophobic_CYS-110,Hydrophobic_TYR-89

>  <total_num_ints>  (105) 
6

>  <total_num_ints_nonhyd>  (105) 
1

>  <num_uniq_frag_ints>  (105) 
1

>  <num_repl_uniq_ints>  (105) 
1

>  <num_uniq_ints_lost>  (105) 
0

>  <num_new_uniq_ints>  (105) 
5

>  <int_check>  (105) 
True

>  <ref_url>  (105) 
https://pubs.acs.org/doi/10.1021/acs.jcim.3c00276?fig=tgr1&ref=pdf

>  <submitter_name>  (105) 
Steph Wills

>  <submitter_institution>  (105) 
University of Oxford

>  <submitter_email>  (105) 
stephanie.wills@balliol.ox.ac.uk

>  <generation_date>  (105) 
2023-11-23

>  <method>  (105) 
FragNetv2

>  <original SMILES>  (105) 
COC(=O)c1cc(NC(=O)C(C)(C)CC(C)C)n(C)n1

>  <original_name>  (105) 
x0556_0A-x0310_0A_50753_B1X

>  <ref_mols>  (105) 
x0556_0A,x0310_0A

>  <ref_pdb>  (105) 
x0310_0A

>  <rationale>  (105) 
FragNet: 1 round bioisosteric merging incl c1cn[nH]c1 and CC(C)CC(C)(C)C(=O)N[Xe] replacing N#CCC(=O)N[Xe]

$$$$
x0556_0A-x0310_0A_12165_B1X
     RDKit          3D

 17 17  0  0  0  0  0  0  0  0999 V2000
   10.0870    9.2270   22.1490 C   0  0  0  0  0  0  0  0  0  0  0  0
    9.8590    9.1800   23.5830 C   0  0  0  0  0  0  0  0  0  0  0  0
    9.0110   10.2310   24.0720 N   0  0  0  0  0  0  0  0  0  0  0  0
    7.9950    9.8570   24.8810 N   0  0  0  0  0  0  0  0  0  0  0  0
    7.3760   10.9930   25.2070 C   0  0  0  0  0  0  0  0  0  0  0  0
    6.3060   11.0040   26.0240 C   0  0  0  0  0  0  0  0  0  0  0  0
    8.1010   12.1320   24.5070 C   0  0  0  0  0  0  0  0  0  0  0  0
    9.1510   11.6550   23.7830 C   0  0  0  0  0  0  0  0  0  0  0  0
   10.1270   12.2610   22.9930 N   0  0  0  0  0  0  0  0  0  0  0  0
   10.7530   13.3320   23.4860 C   0  0  0  0  0  0  0  0  0  0  0  0
   10.3010   13.9070   24.4720 O   0  0  0  0  0  0  0  0  0  0  0  0
   12.0650   13.8920   22.9160 C   0  0  1  0  0  0  0  0  0  0  0  0
   12.4270   13.6260   21.4650 C   0  0  0  0  0  0  0  0  0  0  0  0
   12.0020   15.3750   22.8050 C   0  0  0  0  0  0  0  0  0  0  0  0
   11.9340   16.7460   22.4780 N   0  0  0  0  0  0  0  0  0  0  0  0
   13.1230   13.5140   23.9660 C   0  0  0  0  0  0  0  0  0  0  0  0
   13.1380   14.3860   25.1820 C   0  0  0  0  0  0  0  0  0  0  0  0
  1  2  1  0
  2  3  1  0
  3  4  1  0
  4  5  2  0
  5  6  1  0
  5  7  1  0
  7  8  2  0
  8  9  1  0
  9 10  1  0
 10 11  2  0
 10 12  1  0
 12 13  1  6
 12 14  1  0
 14 15  3  0
 12 16  1  0
 16 17  1  0
  8  3  1  0
A    1
 C1 
A    2
 C2 
A    3
 N1 
A    4
 N2 
A    5
 C3 
A    6
 C4 
A    7
 C5 
A    8
 C6 
A    9
 N3 
A   10
 C7 
A   11
 O1 
A   12
 C8 
A   13
 C9 
A   14
 C10
A   15
 N4 
A   16
 C11
A   17
 C12
M  END
>  <similarity>  (106) 
1.0

>  <smiles>  (106) 
CCn1nc(C)cc1NC(=O)C(C)(C#N)CC

>  <cmpd_id>  (106) 
ENAMINE:Z2721042151

>  <used_subnode>  (106) 
c1cn[nH]c1

>  <used_synthon>  (106) 
CCC(C)(C#N)C(=O)N[Xe]

>  <ref_subnode>  (106) 
c1cn[nH]c1

>  <ref_synthon>  (106) 
N#CCC(=O)N[Xe]

>  <fragmentA>  (106) 
x0556_0A

>  <fragmentB>  (106) 
x0310_0A

>  <HA>  (106) 
17

>  <HBD>  (106) 
1

>  <HBA>  (106) 
4

>  <MW>  (106) 
234.148061196

>  <TPSA>  (106) 
70.71000000000001

>  <LogP>  (106) 
2.0898

>  <RBs>  (106) 
4

>  <G_bound>  (106) 
-8.631381108285499

>  <G_unbound>  (106) 
0.32212511040385594

>  <deltaG>  (106) 
-8.953506218689355

>  <comRMSD>  (106) 
0.43508973641597437

>  <UFFGibbs>  (106) 
179.145887141279

>  <strain_per_HA>  (106) 
10.537993361251706

>  <substructure_overlap_check>  (106) 
True

>  <energy_ratio_check>  (106) 
True

>  <const_energy/unconst_energy>  (106) 
0.9805364578964711

>  <sucos>  (106) 
0.5417215524561878

>  <interactions>  (106) 
HBDonor_SER-125,Hydrophobic_HIS-21,Hydrophobic_PRO-107,Hydrophobic_VAL-124,Hydrophobic_TYR-89

>  <total_num_ints>  (106) 
5

>  <total_num_ints_nonhyd>  (106) 
1

>  <num_uniq_frag_ints>  (106) 
1

>  <num_repl_uniq_ints>  (106) 
1

>  <num_uniq_ints_lost>  (106) 
0

>  <num_new_uniq_ints>  (106) 
4

>  <int_check>  (106) 
True

>  <ref_url>  (106) 
https://pubs.acs.org/doi/10.1021/acs.jcim.3c00276?fig=tgr1&ref=pdf

>  <submitter_name>  (106) 
Steph Wills

>  <submitter_institution>  (106) 
University of Oxford

>  <submitter_email>  (106) 
stephanie.wills@balliol.ox.ac.uk

>  <generation_date>  (106) 
2023-11-23

>  <method>  (106) 
FragNetv2

>  <original SMILES>  (106) 
CCn1nc(C)cc1NC(=O)C(C)(C#N)CC

>  <original_name>  (106) 
x0556_0A-x0310_0A_12165_B1X

>  <ref_mols>  (106) 
x0556_0A,x0310_0A

>  <ref_pdb>  (106) 
x0310_0A

>  <rationale>  (106) 
FragNet: 1 round bioisosteric merging incl c1cn[nH]c1 and CCC(C)(C#N)C(=O)N[Xe] replacing N#CCC(=O)N[Xe]

$$$$
x0556_0A-x0310_0A_30289_B1X
     RDKit          3D

 18 18  0  0  0  0  0  0  0  0999 V2000
   11.9370   13.6850   22.6420 C   0  0  0  0  0  0  0  0  0  0  0  0
   10.7950   13.3170   23.5880 C   0  0  0  0  0  0  0  0  0  0  0  0
   10.9170   13.9010   24.8860 O   0  0  0  0  0  0  0  0  0  0  0  0
    9.7310   12.4550   23.1110 N   0  0  0  0  0  0  0  0  0  0  0  0
    8.8660   11.7620   23.9200 C   0  0  0  0  0  0  0  0  0  0  0  0
    8.8630   10.4090   24.1170 N   0  0  0  0  0  0  0  0  0  0  0  0
    7.9000    9.9870   24.9740 N   0  0  0  0  0  0  0  0  0  0  0  0
    7.2660   11.1070   25.3400 C   0  0  0  0  0  0  0  0  0  0  0  0
    6.0740   11.0870   26.3330 C   0  0  0  0  0  0  0  0  0  0  0  0
    5.2100   11.9650   26.3420 O   0  0  0  0  0  0  0  0  0  0  0  0
    6.0120   10.0430   27.2410 N   0  0  0  0  0  0  0  0  0  0  0  0
    5.4390   10.2130   28.5660 C   0  0  0  0  0  0  0  0  0  0  0  0
    6.4860   10.6450   29.5960 C   0  0  0  0  0  0  0  0  0  0  0  0
    5.8410   10.7940   30.7940 N   0  0  0  0  0  0  0  0  0  0  0  0
    4.8070    8.8920   28.9860 C   0  0  0  0  0  0  0  0  0  0  0  0
    5.7360    7.7630   28.9730 N   0  0  0  0  0  0  0  0  0  0  0  0
    7.8410   12.2260   24.7010 C   0  0  0  0  0  0  0  0  0  0  0  0
    7.3090   14.0110   24.8820 Br  0  0  0  0  0  0  0  0  0  0  0  0
  1  2  1  0
  2  3  2  0
  2  4  1  0
  4  5  1  0
  5  6  1  0
  6  7  1  0
  7  8  2  0
  8  9  1  0
  9 10  2  0
  9 11  1  0
 11 12  1  0
 12 13  1  0
 13 14  1  0
 12 15  1  0
 15 16  1  0
  8 17  1  0
 17 18  1  0
 17  5  2  0
A    1
 C1 
A    2
 C2 
A    3
 O1 
A    4
 N1 
A    5
 C3 
A    6
 N2 
A    7
 N3 
A    8
 C4 
A    9
 C5 
A   10
 O2 
A   11
 N4 
A   12
 C6 
A   13
 C7 
A   14
 N5 
A   15
 C8 
A   16
 N6 
A   17
 C9 
A   18
BR1 
M  END
>  <similarity>  (107) 
1.0

>  <smiles>  (107) 
CC(=O)Nc1[nH]nc(C(=O)NC(CN)CN)c1Br

>  <cmpd_id>  (107) 
ENAMINE:PV-002825295322

>  <used_subnode>  (107) 
c1cn[nH]c1

>  <used_synthon>  (107) 
CC(=O)N[Xe]

>  <ref_subnode>  (107) 
c1cn[nH]c1

>  <ref_synthon>  (107) 
N#CCC(=O)N[Xe]

>  <fragmentA>  (107) 
x0556_0A

>  <fragmentB>  (107) 
x0310_0A

>  <HA>  (107) 
18

>  <HBD>  (107) 
5

>  <HBA>  (107) 
5

>  <MW>  (107) 
318.04398582000005

>  <TPSA>  (107) 
138.92

>  <LogP>  (107) 
-0.853599999999999

>  <RBs>  (107) 
5

>  <G_bound>  (107) 
-6.48753391734675

>  <G_unbound>  (107) 
0.7714869238121277

>  <deltaG>  (107) 
-7.259020841158877

>  <comRMSD>  (107) 
0.4738448328546649

>  <UFFGibbs>  (107) 
79.60760527523041

>  <strain_per_HA>  (107) 
4.422644737512801

>  <substructure_overlap_check>  (107) 
True

>  <energy_ratio_check>  (107) 
True

>  <const_energy/unconst_energy>  (107) 
1.0831085100801836

>  <sucos>  (107) 
0.5418573785686682

>  <interactions>  (107) 
Hydrophobic_HIS-21,HBDonor_SER-105,Hydrophobic_PRO-107

>  <total_num_ints>  (107) 
3

>  <total_num_ints_nonhyd>  (107) 
1

>  <num_uniq_frag_ints>  (107) 
1

>  <num_repl_uniq_ints>  (107) 
1

>  <num_uniq_ints_lost>  (107) 
0

>  <num_new_uniq_ints>  (107) 
2

>  <int_check>  (107) 
True

>  <ref_url>  (107) 
https://pubs.acs.org/doi/10.1021/acs.jcim.3c00276?fig=tgr1&ref=pdf

>  <submitter_name>  (107) 
Steph Wills

>  <submitter_institution>  (107) 
University of Oxford

>  <submitter_email>  (107) 
stephanie.wills@balliol.ox.ac.uk

>  <generation_date>  (107) 
2023-11-23

>  <method>  (107) 
FragNetv2

>  <original SMILES>  (107) 
CC(=O)Nc1[nH]nc(C(=O)NC(CN)CN)c1Br

>  <original_name>  (107) 
x0556_0A-x0310_0A_30289_B1X

>  <ref_mols>  (107) 
x0556_0A,x0310_0A

>  <ref_pdb>  (107) 
x0310_0A

>  <rationale>  (107) 
FragNet: 1 round bioisosteric merging incl c1cn[nH]c1 and CC(=O)N[Xe] replacing N#CCC(=O)N[Xe]

$$$$
x0556_0A-x0310_0A_46457_B1X_rgrp-1
     RDKit          3D

 12 12  0  0  0  0  0  0  0  0999 V2000
   12.1980   13.7760   22.8240 C   0  0  0  0  0  0  0  0  0  0  0  0
   10.9290   13.4530   23.5960 C   0  0  0  0  0  0  0  0  0  0  0  0
   10.7990   13.9430   24.7150 O   0  0  0  0  0  0  0  0  0  0  0  0
   10.0250   12.6460   23.0170 N   0  0  0  0  0  0  0  0  0  0  0  0
    9.1900   11.8020   23.7500 C   0  0  0  0  0  0  0  0  0  0  0  0
    8.1800   12.1420   24.6800 C   0  0  0  0  0  0  0  0  0  0  0  0
    7.7550   13.5000   25.1160 C   0  0  0  0  0  0  0  0  0  0  0  0
    6.4030   13.7970   25.1530 N   0  0  0  0  0  0  0  0  0  0  0  0
    7.5840   10.9980   25.1880 C   0  0  0  0  0  0  0  0  0  0  0  0
    8.1900    9.9030   24.6060 N   0  0  0  0  0  0  0  0  0  0  0  0
    9.1320   10.4160   23.7620 N   0  0  0  0  0  0  0  0  0  0  0  0
    9.9370    9.4860   23.0000 C   0  0  0  0  0  0  0  0  0  0  0  0
  1  2  1  0
  2  3  2  0
  2  4  1  0
  4  5  1  0
  5  6  2  0
  6  7  1  0
  7  8  3  0
  6  9  1  0
  9 10  2  0
 10 11  1  0
 11 12  1  0
 11  5  1  0
A    1
 C1 
A    2
 C2 
A    3
 O1 
A    4
 N1 
A    5
 C3 
A    6
 C4 
A    7
 C5 
A    8
 N2 
A    9
 C6 
A   10
 N3 
A   11
 N4 
A   12
 C7 
M  END
>  <similarity>  (108) 
1.0

>  <smiles>  (108) 
CC(=O)Nc1c(C#N)cnn1C

>  <cmpd_id>  (108) 
CHEMSPACE-BB:CSMB00000188912,ENAMINE:PV-002879257761,MOLPORT:022-369-911

>  <used_subnode>  (108) 
c1cn[nH]c1

>  <used_synthon>  (108) 
CC(=O)N[Xe]

>  <ref_subnode>  (108) 
c1cn[nH]c1

>  <ref_synthon>  (108) 
N#CCC(=O)N[Xe]

>  <fragmentA>  (108) 
x0556_0A

>  <fragmentB>  (108) 
x0310_0A

>  <HA>  (108) 
12

>  <HBD>  (108) 
1

>  <HBA>  (108) 
4

>  <MW>  (108) 
164.069810876

>  <TPSA>  (108) 
70.71000000000001

>  <LogP>  (108) 
0.2501799999999998

>  <RBs>  (108) 
1

>  <G_bound>  (108) 
-8.232665253068792

>  <G_unbound>  (108) 
0.17033805078015418

>  <deltaG>  (108) 
-8.403003303848946

>  <comRMSD>  (108) 
0.373959069418645

>  <substructure_overlap_check>  (108) 
True

>  <energy_ratio_check>  (108) 
True

>  <const_energy/unconst_energy>  (108) 
4.563451805060895

>  <sucos>  (108) 
0.5425015114518561

>  <interactions>  (108) 
Hydrophobic_PRO-107,Hydrophobic_HIS-21,HBDonor_SER-125

>  <total_num_ints>  (108) 
3

>  <total_num_ints_nonhyd>  (108) 
1

>  <num_uniq_frag_ints>  (108) 
1

>  <num_repl_uniq_ints>  (108) 
1

>  <num_uniq_ints_lost>  (108) 
0

>  <num_new_uniq_ints>  (108) 
2

>  <int_check>  (108) 
True

>  <ref_url>  (108) 
https://pubs.acs.org/doi/10.1021/acs.jcim.3c00276?fig=tgr1&ref=pdf

>  <submitter_name>  (108) 
Steph Wills

>  <submitter_institution>  (108) 
University of Oxford

>  <submitter_email>  (108) 
stephanie.wills@balliol.ox.ac.uk

>  <generation_date>  (108) 
2023-11-23

>  <method>  (108) 
FragNetv2

>  <original SMILES>  (108) 
CC(=O)Nc1c(C#N)cnn1C

>  <original_name>  (108) 
x0556_0A-x0310_0A_46457_B1X_rgrp-1

>  <ref_mols>  (108) 
x0556_0A,x0310_0A

>  <ref_pdb>  (108) 
x0310_0A

>  <rationale>  (108) 
FragNet: 1 round bioisosteric merging incl c1cn[nH]c1 and CC(=O)N[Xe] replacing N#CCC(=O)N[Xe]

$$$$
x0556_0A-x0310_0A_39577_B1X_rgrp-0
     RDKit          3D

 16 16  0  0  0  0  0  0  0  0999 V2000
    6.4320   10.7110   26.0200 C   0  0  0  0  0  0  0  0  0  0  0  0
    7.5770   10.8560   25.0600 C   0  0  0  0  0  0  0  0  0  0  0  0
    8.2550    9.7800   24.6650 N   0  0  0  0  0  0  0  0  0  0  0  0
    9.1870   10.2550   23.8240 N   0  0  0  0  0  0  0  0  0  0  0  0
    9.1370   11.6080   23.6570 C   0  0  0  0  0  0  0  0  0  0  0  0
   10.0040   12.3160   22.8280 N   0  0  0  0  0  0  0  0  0  0  0  0
   10.9300   13.1890   23.3470 C   0  0  0  0  0  0  0  0  0  0  0  0
   11.2620   13.2250   24.5290 O   0  0  0  0  0  0  0  0  0  0  0  0
   11.5040   14.0850   22.4540 C   0  0  0  0  0  0  0  0  0  0  0  0
   10.5320   14.6380   21.6610 F   0  0  0  0  0  0  0  0  0  0  0  0
   12.3170   13.4530   21.5760 F   0  0  0  0  0  0  0  0  0  0  0  0
   12.2760   15.1790   23.0720 C   0  0  0  0  0  0  0  0  0  0  0  0
   11.9850   16.3530   22.4600 F   0  0  0  0  0  0  0  0  0  0  0  0
   11.8990   15.2850   24.3750 F   0  0  0  0  0  0  0  0  0  0  0  0
    8.0860   12.0420   24.4580 C   0  0  0  0  0  0  0  0  0  0  0  0
    7.5810   13.4600   24.6520 C   0  0  0  0  0  0  0  0  0  0  0  0
  1  2  1  0
  2  3  2  0
  3  4  1  0
  4  5  1  0
  5  6  1  0
  6  7  1  0
  7  8  2  0
  7  9  1  0
  9 10  1  0
  9 11  1  0
  9 12  1  0
 12 13  1  0
 12 14  1  0
  5 15  2  0
 15 16  1  0
 15  2  1  0
A    1
 C1 
A    2
 C2 
A    3
 N1 
A    4
 N2 
A    5
 C3 
A    6
 N3 
A    7
 C4 
A    8
 O1 
A    9
 C5 
A   10
 F1 
A   11
 F2 
A   12
 C6 
A   13
 F3 
A   14
 F4 
A   15
 C7 
A   16
 C8 
M  END
>  <similarity>  (109) 
1.0

>  <smiles>  (109) 
Cc1n[nH]c(NC(=O)C(F)(F)C(F)F)c1C

>  <cmpd_id>  (109) 
ENAMINE:Z1344000962,CHEMSPACE-BB:CSMB00006171466

>  <used_subnode>  (109) 
c1cn[nH]c1

>  <used_synthon>  (109) 
O=C(N[Xe])C(F)(F)C(F)F

>  <ref_subnode>  (109) 
c1cn[nH]c1

>  <ref_synthon>  (109) 
N#CCC(=O)N[Xe]

>  <fragmentA>  (109) 
x0556_0A

>  <fragmentB>  (109) 
x0310_0A

>  <HA>  (109) 
16

>  <HBD>  (109) 
2

>  <HBA>  (109) 
2

>  <MW>  (109) 
239.068174788

>  <TPSA>  (109) 
57.78

>  <LogP>  (109) 
1.8654399999999998

>  <RBs>  (109) 
3

>  <G_bound>  (109) 
-3.808531178122757

>  <G_unbound>  (109) 
0.6549620871783047

>  <deltaG>  (109) 
-4.463493265301062

>  <comRMSD>  (109) 
0.2728091230192723

>  <substructure_overlap_check>  (109) 
True

>  <energy_ratio_check>  (109) 
True

>  <const_energy/unconst_energy>  (109) 
1.9756019106146718

>  <sucos>  (109) 
0.5426555050295702

>  <interactions>  (109) 
Hydrophobic_PRO-107,HBDonor_SER-125

>  <total_num_ints>  (109) 
2

>  <total_num_ints_nonhyd>  (109) 
1

>  <num_uniq_frag_ints>  (109) 
1

>  <num_repl_uniq_ints>  (109) 
1

>  <num_uniq_ints_lost>  (109) 
0

>  <num_new_uniq_ints>  (109) 
1

>  <int_check>  (109) 
True

>  <ref_url>  (109) 
https://pubs.acs.org/doi/10.1021/acs.jcim.3c00276?fig=tgr1&ref=pdf

>  <submitter_name>  (109) 
Steph Wills

>  <submitter_institution>  (109) 
University of Oxford

>  <submitter_email>  (109) 
stephanie.wills@balliol.ox.ac.uk

>  <generation_date>  (109) 
2023-11-23

>  <method>  (109) 
FragNetv2

>  <original SMILES>  (109) 
Cc1n[nH]c(NC(=O)C(F)(F)C(F)F)c1C

>  <original_name>  (109) 
x0556_0A-x0310_0A_39577_B1X_rgrp-0

>  <ref_mols>  (109) 
x0556_0A,x0310_0A

>  <ref_pdb>  (109) 
x0310_0A

>  <rationale>  (109) 
FragNet: 1 round bioisosteric merging incl c1cn[nH]c1 and O=C(N[Xe])C(F)(F)C(F)F replacing N#CCC(=O)N[Xe]

$$$$
x0556_0A-x0310_0A_53925_B1X_rgrp-0
     RDKit          3D

 14 14  0  0  0  0  0  0  0  0999 V2000
   12.0780   15.9690   22.8310 C   0  0  0  0  0  0  0  0  0  0  0  0
   11.0920   15.3000   21.9430 C   0  0  0  0  0  0  0  0  0  0  0  0
   11.2740   14.0590   21.6380 C   0  0  1  0  0  0  0  0  0  0  0  0
   12.4200   13.8230   21.0110 C   0  0  0  0  0  0  0  0  0  0  0  0
   11.1320   13.2030   22.9190 C   0  0  0  0  0  0  0  0  0  0  0  0
   11.6640   13.4220   24.0170 O   0  0  0  0  0  0  0  0  0  0  0  0
   10.2910   12.1340   22.6480 N   0  0  0  0  0  0  0  0  0  0  0  0
    9.4380   11.4390   23.4670 C   0  0  0  0  0  0  0  0  0  0  0  0
    8.4060   12.1450   24.3190 C   0  0  0  0  0  0  0  0  0  0  0  0
    8.2040   13.5930   24.3680 C   0  0  0  0  0  0  0  0  0  0  0  0
    7.6500   11.1130   25.0800 C   0  0  0  0  0  0  0  0  0  0  0  0
    8.2680    9.8800   24.6370 N   0  0  0  0  0  0  0  0  0  0  0  0
    9.2680   10.0930   23.7320 N   0  0  0  0  0  0  0  0  0  0  0  0
    9.9780    8.9650   23.1980 C   0  0  0  0  0  0  0  0  0  0  0  0
  1  2  1  0
  2  3  1  0
  3  4  1  1
  3  5  1  0
  5  6  2  0
  5  7  1  0
  7  8  1  0
  8  9  2  0
  9 10  1  0
  9 11  1  0
 11 12  2  0
 12 13  1  0
 13 14  1  0
 13  8  1  0
A    1
 C1 
A    2
 C2 
A    3
 C3 
A    4
 C4 
A    5
 C5 
A    6
 O1 
A    7
 N1 
A    8
 C6 
A    9
 C7 
A   10
 C8 
A   11
 C9 
A   12
 N2 
A   13
 N3 
A   14
 C10
M  END
>  <similarity>  (110) 
1.0

>  <smiles>  (110) 
CCC(C)C(=O)Nc1c(C)cnn1C

>  <cmpd_id>  (110) 
ENAMINE:Z2643294775

>  <used_subnode>  (110) 
c1cn[nH]c1

>  <used_synthon>  (110) 
CCC(C)C(=O)N[Xe]

>  <ref_subnode>  (110) 
c1cn[nH]c1

>  <ref_synthon>  (110) 
N#CCC(=O)N[Xe]

>  <fragmentA>  (110) 
x0556_0A

>  <fragmentB>  (110) 
x0310_0A

>  <HA>  (110) 
14

>  <HBD>  (110) 
1

>  <HBA>  (110) 
3

>  <MW>  (110) 
195.137162164

>  <TPSA>  (110) 
46.92

>  <LogP>  (110) 
1.7131199999999998

>  <RBs>  (110) 
3

>  <G_bound>  (110) 
-8.738887440086039

>  <G_unbound>  (110) 
-0.7458261959088808

>  <deltaG>  (110) 
-7.993061244177158

>  <comRMSD>  (110) 
0.4310073519597295

>  <substructure_overlap_check>  (110) 
True

>  <energy_ratio_check>  (110) 
True

>  <const_energy/unconst_energy>  (110) 
3.6868108629261993

>  <sucos>  (110) 
0.5432863317197124

>  <interactions>  (110) 
Hydrophobic_PRO-107,Hydrophobic_HIS-21,Hydrophobic_TYR-89,HBDonor_SER-125,Hydrophobic_TYR-90

>  <total_num_ints>  (110) 
5

>  <total_num_ints_nonhyd>  (110) 
1

>  <num_uniq_frag_ints>  (110) 
1

>  <num_repl_uniq_ints>  (110) 
1

>  <num_uniq_ints_lost>  (110) 
0

>  <num_new_uniq_ints>  (110) 
4

>  <int_check>  (110) 
True

>  <ref_url>  (110) 
https://pubs.acs.org/doi/10.1021/acs.jcim.3c00276?fig=tgr1&ref=pdf

>  <submitter_name>  (110) 
Steph Wills

>  <submitter_institution>  (110) 
University of Oxford

>  <submitter_email>  (110) 
stephanie.wills@balliol.ox.ac.uk

>  <generation_date>  (110) 
2023-11-23

>  <method>  (110) 
FragNetv2

>  <original SMILES>  (110) 
CCC(C)C(=O)Nc1c(C)cnn1C

>  <original_name>  (110) 
x0556_0A-x0310_0A_53925_B1X_rgrp-0

>  <ref_mols>  (110) 
x0556_0A,x0310_0A

>  <ref_pdb>  (110) 
x0310_0A

>  <rationale>  (110) 
FragNet: 1 round bioisosteric merging incl c1cn[nH]c1 and CCC(C)C(=O)N[Xe] replacing N#CCC(=O)N[Xe]

$$$$
x0556_0A-x0310_0A_54210_B1X
     RDKit          3D

 13 13  0  0  0  0  0  0  0  0999 V2000
   11.8660   13.6730   22.6940 C   0  0  0  0  0  0  0  0  0  0  0  0
   10.7270   13.2770   23.6190 C   0  0  0  0  0  0  0  0  0  0  0  0
   10.8280   13.8400   24.9230 O   0  0  0  0  0  0  0  0  0  0  0  0
    9.6730   12.4110   23.1180 N   0  0  0  0  0  0  0  0  0  0  0  0
    8.9040   11.5720   23.8930 C   0  0  0  0  0  0  0  0  0  0  0  0
    8.9300   10.2280   24.0520 N   0  0  0  0  0  0  0  0  0  0  0  0
    7.9210   10.0190   24.9500 N   0  0  0  0  0  0  0  0  0  0  0  0
    7.1750   11.1610   25.4370 C   0  0  0  0  0  0  0  0  0  0  0  0
    6.1070   11.0030   26.3810 C   0  0  0  0  0  0  0  0  0  0  0  0
    5.1270   11.7420   26.4040 O   0  0  0  0  0  0  0  0  0  0  0  0
    6.2630    9.9980   27.2760 O   0  0  0  0  0  0  0  0  0  0  0  0
    7.7870   12.1910   24.7690 C   0  0  0  0  0  0  0  0  0  0  0  0
    7.4190   13.6510   24.8820 C   0  0  0  0  0  0  0  0  0  0  0  0
  1  2  1  0
  2  3  2  0
  2  4  1  0
  4  5  1  0
  5  6  2  0
  6  7  1  0
  7  8  1  0
  8  9  1  0
  9 10  2  0
  9 11  1  0
  8 12  2  0
 12 13  1  0
 12  5  1  0
A    1
 C1 
A    2
 C2 
A    3
 O1 
A    4
 N1 
A    5
 C3 
A    6
 N2 
A    7
 N3 
A    8
 C4 
A    9
 C5 
A   10
 O2 
A   11
 O3 
A   12
 C6 
A   13
 C7 
M  END
>  <similarity>  (111) 
1.0

>  <smiles>  (111) 
CC(=O)Nc1n[nH]c(C(=O)O)c1C

>  <cmpd_id>  (111) 
ENAMINE:Z3508884577

>  <used_subnode>  (111) 
c1cn[nH]c1

>  <used_synthon>  (111) 
CC(=O)N[Xe]

>  <ref_subnode>  (111) 
c1cn[nH]c1

>  <ref_synthon>  (111) 
N#CCC(=O)N[Xe]

>  <fragmentA>  (111) 
x0556_0A

>  <fragmentB>  (111) 
x0310_0A

>  <HA>  (111) 
13

>  <HBD>  (111) 
3

>  <HBA>  (111) 
3

>  <MW>  (111) 
183.064391148

>  <TPSA>  (111) 
95.08

>  <LogP>  (111) 
0.3747199999999995

>  <RBs>  (111) 
2

>  <G_bound>  (111) 
-5.776417575474132

>  <G_unbound>  (111) 
0.27978001353844206

>  <deltaG>  (111) 
-6.056197589012574

>  <comRMSD>  (111) 
0.40327746765814165

>  <UFFGibbs>  (111) 
94.54161019745905

>  <strain_per_HA>  (111) 
7.272431553650696

>  <substructure_overlap_check>  (111) 
True

>  <energy_ratio_check>  (111) 
True

>  <const_energy/unconst_energy>  (111) 
1.0974288876036946

>  <sucos>  (111) 
0.5442884378910352

>  <interactions>  (111) 
Hydrophobic_HIS-21,HBDonor_SER-105,Hydrophobic_PRO-107

>  <total_num_ints>  (111) 
3

>  <total_num_ints_nonhyd>  (111) 
1

>  <num_uniq_frag_ints>  (111) 
1

>  <num_repl_uniq_ints>  (111) 
1

>  <num_uniq_ints_lost>  (111) 
0

>  <num_new_uniq_ints>  (111) 
2

>  <int_check>  (111) 
True

>  <ref_url>  (111) 
https://pubs.acs.org/doi/10.1021/acs.jcim.3c00276?fig=tgr1&ref=pdf

>  <submitter_name>  (111) 
Steph Wills

>  <submitter_institution>  (111) 
University of Oxford

>  <submitter_email>  (111) 
stephanie.wills@balliol.ox.ac.uk

>  <generation_date>  (111) 
2023-11-23

>  <method>  (111) 
FragNetv2

>  <original SMILES>  (111) 
CC(=O)Nc1n[nH]c(C(=O)O)c1C

>  <original_name>  (111) 
x0556_0A-x0310_0A_54210_B1X

>  <ref_mols>  (111) 
x0556_0A,x0310_0A

>  <ref_pdb>  (111) 
x0310_0A

>  <rationale>  (111) 
FragNet: 1 round bioisosteric merging incl c1cn[nH]c1 and CC(=O)N[Xe] replacing N#CCC(=O)N[Xe]

$$$$
x0556_0A-x0310_0A_55969_B1X
     RDKit          3D

 18 18  0  0  0  0  0  0  0  0999 V2000
    6.0650   13.9990   24.9600 C   0  0  0  0  0  0  0  0  0  0  0  0
    7.2700   13.4850   24.6800 C   0  0  0  0  0  0  0  0  0  0  0  0
    7.6380   11.9950   24.6990 C   0  0  0  0  0  0  0  0  0  0  0  0
    8.8200   11.5660   23.8280 C   0  0  0  0  0  0  0  0  0  0  0  0
    9.6490   12.2880   23.0020 N   0  0  0  0  0  0  0  0  0  0  0  0
   10.6110   13.0730   23.5380 C   0  0  0  0  0  0  0  0  0  0  0  0
   10.8030   13.2970   24.7160 O   0  0  0  0  0  0  0  0  0  0  0  0
   11.4110   13.6730   22.4300 C   0  0  0  0  0  0  0  0  0  0  0  0
   12.1580   14.9050   22.5670 C   0  0  0  0  0  0  0  0  0  0  0  0
   12.0790   15.4890   23.8830 C   0  0  0  0  0  0  0  0  0  0  0  0
   13.0400   15.6200   21.3030 Cl  0  0  0  0  0  0  0  0  0  0  0  0
    8.9200   10.2160   24.0270 C   0  0  0  0  0  0  0  0  0  0  0  0
    7.8700    9.8420   24.9600 N   0  0  0  0  0  0  0  0  0  0  0  0
    7.1200   10.9310   25.3400 N   0  0  0  0  0  0  0  0  0  0  0  0
    6.0510   10.7470   26.2210 C   0  0  0  0  0  0  0  0  0  0  0  0
    6.2180   11.3600   27.4850 C   0  0  0  0  0  0  0  0  0  0  0  0
    6.9060   12.7080   27.3690 C   0  0  0  0  0  0  0  0  0  0  0  0
    4.7890   11.6290   27.9420 C   0  0  0  0  0  0  0  0  0  0  0  0
  1  2  1  0
  2  3  1  0
  3  4  2  0
  4  5  1  0
  5  6  1  0
  6  7  2  0
  6  8  1  0
  8  9  2  3
  9 10  1  0
  9 11  1  0
  4 12  1  0
 12 13  2  0
 13 14  1  0
 14 15  1  0
 15 16  1  0
 16 17  1  0
 16 18  1  0
 14  3  1  0
A    1
 C1 
A    2
 C2 
A    3
 C3 
A    4
 C4 
A    5
 N1 
A    6
 C5 
A    7
 O1 
A    8
 C6 
A    9
 C7 
A   10
 C8 
A   11
CL1 
A   12
 C9 
A   13
 N2 
A   14
 N3 
A   15
 C10
A   16
 C11
A   17
 C12
A   18
 C13
M  END
>  <similarity>  (112) 
1.0

>  <smiles>  (112) 
CCc1c(NC(=O)C=C(C)Cl)cnn1CC(C)C

>  <cmpd_id>  (112) 
ENAMINE:Z2893428720

>  <used_subnode>  (112) 
c1cn[nH]c1

>  <used_synthon>  (112) 
CC(Cl)=CC(=O)N[Xe]

>  <ref_subnode>  (112) 
c1cn[nH]c1

>  <ref_synthon>  (112) 
N#CCC(=O)N[Xe]

>  <fragmentA>  (112) 
x0556_0A

>  <fragmentB>  (112) 
x0310_0A

>  <HA>  (112) 
18

>  <HBD>  (112) 
1

>  <HBA>  (112) 
3

>  <MW>  (112) 
269.12948994

>  <TPSA>  (112) 
46.92

>  <LogP>  (112) 
3.1826000000000016

>  <RBs>  (112) 
5

>  <G_bound>  (112) 
-6.0912735806263365

>  <G_unbound>  (112) 
-0.4069383501769455

>  <deltaG>  (112) 
-5.684335230449391

>  <comRMSD>  (112) 
1.0227985942598063

>  <UFFGibbs>  (112) 
251.10742477831394

>  <strain_per_HA>  (112) 
13.950412487684108

>  <substructure_overlap_check>  (112) 
True

>  <energy_ratio_check>  (112) 
True

>  <const_energy/unconst_energy>  (112) 
0.9790053713598065

>  <sucos>  (112) 
0.544628370489025

>  <interactions>  (112) 
HBDonor_SER-125,Hydrophobic_HIS-21,Hydrophobic_PRO-107,Hydrophobic_TYR-89

>  <total_num_ints>  (112) 
4

>  <total_num_ints_nonhyd>  (112) 
1

>  <num_uniq_frag_ints>  (112) 
1

>  <num_repl_uniq_ints>  (112) 
1

>  <num_uniq_ints_lost>  (112) 
0

>  <num_new_uniq_ints>  (112) 
3

>  <int_check>  (112) 
True

>  <ref_url>  (112) 
https://pubs.acs.org/doi/10.1021/acs.jcim.3c00276?fig=tgr1&ref=pdf

>  <submitter_name>  (112) 
Steph Wills

>  <submitter_institution>  (112) 
University of Oxford

>  <submitter_email>  (112) 
stephanie.wills@balliol.ox.ac.uk

>  <generation_date>  (112) 
2023-11-23

>  <method>  (112) 
FragNetv2

>  <original SMILES>  (112) 
CCc1c(NC(=O)C=C(C)Cl)cnn1CC(C)C

>  <original_name>  (112) 
x0556_0A-x0310_0A_55969_B1X

>  <ref_mols>  (112) 
x0556_0A,x0310_0A

>  <ref_pdb>  (112) 
x0310_0A

>  <rationale>  (112) 
FragNet: 1 round bioisosteric merging incl c1cn[nH]c1 and CC(Cl)=CC(=O)N[Xe] replacing N#CCC(=O)N[Xe]

$$$$
x0556_0A-x0310_0A_17062_B1X
     RDKit          3D

 20 21  0  0  0  0  0  0  0  0999 V2000
   12.0370   14.5030   19.7520 C   0  0  0  0  0  0  0  0  0  0  0  0
   10.6190   14.6810   20.8620 S   0  0  0  0  0  0  0  0  0  0  0  0
   11.4610   14.1370   22.3870 C   0  0  0  0  0  0  0  0  0  0  0  0
   12.6550   13.5760   22.0710 C   0  0  0  0  0  0  0  0  0  0  0  0
   12.0340   15.3700   23.1180 C   0  0  0  0  0  0  0  0  0  0  0  0
   10.9130   13.3090   23.3680 C   0  0  0  0  0  0  0  0  0  0  0  0
   11.1680   13.4440   24.5580 O   0  0  0  0  0  0  0  0  0  0  0  0
   10.0500   12.3560   22.9050 N   0  0  0  0  0  0  0  0  0  0  0  0
    9.0590   11.7240   23.7870 C   0  0  0  0  0  0  0  0  0  0  0  0
    8.9350   10.3730   24.0630 N   0  0  0  0  0  0  0  0  0  0  0  0
    7.9330   10.0760   24.9230 N   0  0  0  0  0  0  0  0  0  0  0  0
    7.3860   11.3130   25.2110 C   0  0  0  0  0  0  0  0  0  0  0  0
    6.2920   11.3980   26.1080 C   0  0  0  0  0  0  0  0  0  0  0  0
    5.5500   12.6720   26.0600 C   0  0  0  0  0  0  0  0  0  0  0  0
    4.4990   12.9020   26.8510 C   0  0  0  0  0  0  0  0  0  0  0  0
    4.1430   11.8030   27.7590 N   0  0  0  0  0  0  0  0  0  0  0  0
    4.7910   10.5920   27.8490 C   0  0  0  0  0  0  0  0  0  0  0  0
    5.8740   10.4240   26.9970 C   0  0  0  0  0  0  0  0  0  0  0  0
    8.0680   12.3480   24.5080 C   0  0  0  0  0  0  0  0  0  0  0  0
    7.7940   13.8460   24.5250 C   0  0  0  0  0  0  0  0  0  0  0  0
  1  2  1  0
  2  3  1  0
  3  4  1  0
  3  5  1  0
  3  6  1  0
  6  7  2  0
  6  8  1  0
  8  9  1  0
  9 10  1  0
 10 11  1  0
 11 12  2  0
 12 13  1  0
 13 14  2  0
 14 15  1  0
 15 16  2  0
 16 17  1  0
 17 18  2  0
 12 19  1  0
 19 20  1  0
 19  9  2  0
 18 13  1  0
A    1
 C1 
A    2
 S1 
A    3
 C2 
A    4
 C3 
A    5
 C4 
A    6
 C5 
A    7
 O1 
A    8
 N1 
A    9
 C6 
A   10
 N2 
A   11
 N3 
A   12
 C7 
A   13
 C8 
A   14
 C9 
A   15
 C10
A   16
 N4 
A   17
 C11
A   18
 C12
A   19
 C13
A   20
 C14
M  END
>  <similarity>  (113) 
1.0

>  <smiles>  (113) 
CSC(C)(C)C(=O)Nc1[nH]nc(-c2ccncc2)c1C

>  <cmpd_id>  (113) 
ENAMINE:Z2627354192

>  <used_subnode>  (113) 
c1cn[nH]c1

>  <used_synthon>  (113) 
CSC(C)(C)C(=O)N[Xe]

>  <ref_subnode>  (113) 
c1cn[nH]c1

>  <ref_synthon>  (113) 
N#CCC(=O)N[Xe]

>  <fragmentA>  (113) 
x0556_0A

>  <fragmentB>  (113) 
x0310_0A

>  <HA>  (113) 
20

>  <HBD>  (113) 
2

>  <HBA>  (113) 
4

>  <MW>  (113) 
290.120132196

>  <TPSA>  (113) 
70.67

>  <LogP>  (113) 
2.860220000000001

>  <RBs>  (113) 
4

>  <G_bound>  (113) 
-11.666258737454982

>  <G_unbound>  (113) 
0.15478334429606733

>  <deltaG>  (113) 
-11.821042081751049

>  <comRMSD>  (113) 
0.5795447860508753

>  <UFFGibbs>  (113) 
207.8931763444344

>  <strain_per_HA>  (113) 
10.394658817221721

>  <substructure_overlap_check>  (113) 
True

>  <energy_ratio_check>  (113) 
True

>  <const_energy/unconst_energy>  (113) 
1.063655714995729

>  <sucos>  (113) 
0.5451438284504706

>  <interactions>  (113) 
HBDonor_SER-125,Hydrophobic_TYR-90,Hydrophobic_HIS-21,Hydrophobic_PRO-107,Hydrophobic_ASP-39,Hydrophobic_TYR-89,Hydrophobic_THR-126

>  <total_num_ints>  (113) 
7

>  <total_num_ints_nonhyd>  (113) 
1

>  <num_uniq_frag_ints>  (113) 
1

>  <num_repl_uniq_ints>  (113) 
1

>  <num_uniq_ints_lost>  (113) 
0

>  <num_new_uniq_ints>  (113) 
6

>  <int_check>  (113) 
True

>  <ref_url>  (113) 
https://pubs.acs.org/doi/10.1021/acs.jcim.3c00276?fig=tgr1&ref=pdf

>  <submitter_name>  (113) 
Steph Wills

>  <submitter_institution>  (113) 
University of Oxford

>  <submitter_email>  (113) 
stephanie.wills@balliol.ox.ac.uk

>  <generation_date>  (113) 
2023-11-23

>  <method>  (113) 
FragNetv2

>  <original SMILES>  (113) 
CSC(C)(C)C(=O)Nc1[nH]nc(-c2ccncc2)c1C

>  <original_name>  (113) 
x0556_0A-x0310_0A_17062_B1X

>  <ref_mols>  (113) 
x0556_0A,x0310_0A

>  <ref_pdb>  (113) 
x0310_0A

>  <rationale>  (113) 
FragNet: 1 round bioisosteric merging incl c1cn[nH]c1 and CSC(C)(C)C(=O)N[Xe] replacing N#CCC(=O)N[Xe]

$$$$
x0556_0A-x0310_0A_17121_B1X_rgrp-0
     RDKit          3D

 18 18  0  0  0  0  0  0  0  0999 V2000
    6.6930   12.9250   28.2480 C   0  0  0  0  0  0  0  0  0  0  0  0
    6.6710   11.6280   27.6570 O   0  0  0  0  0  0  0  0  0  0  0  0
    6.2630   11.6240   26.3510 C   0  0  0  0  0  0  0  0  0  0  0  0
    5.1070   11.8840   26.0400 O   0  0  0  0  0  0  0  0  0  0  0  0
    7.2940   11.3170   25.4380 C   0  0  0  0  0  0  0  0  0  0  0  0
    8.0980   12.3080   24.9220 C   0  0  0  0  0  0  0  0  0  0  0  0
    9.0430   11.5940   23.9980 C   0  0  0  0  0  0  0  0  0  0  0  0
    9.9980   12.2190   23.2940 N   0  0  0  0  0  0  0  0  0  0  0  0
   10.8020   13.2000   24.0120 C   0  0  0  0  0  0  0  0  0  0  0  0
   10.3970   13.9580   24.8790 O   0  0  0  0  0  0  0  0  0  0  0  0
   12.1370   13.2250   23.6230 C   0  0  0  0  0  0  0  0  0  0  0  0
   12.3480   14.6950   23.5080 C   0  0  0  0  0  0  0  0  0  0  0  0
   11.4740   14.9250   22.2920 C   0  0  0  0  0  0  0  0  0  0  0  0
   11.9350   16.4680   21.5100 S   0  0  0  0  0  0  0  0  0  0  0  0
   13.4830   15.7840   20.9260 C   0  0  0  0  0  0  0  0  0  0  0  0
    8.7040   10.3050   24.0610 N   0  0  0  0  0  0  0  0  0  0  0  0
    9.3600    9.2770   23.2950 C   0  0  0  0  0  0  0  0  0  0  0  0
    7.6540   10.0850   24.9310 N   0  0  0  0  0  0  0  0  0  0  0  0
  1  2  1  0
  2  3  1  0
  3  4  2  0
  3  5  1  0
  5  6  1  0
  6  7  2  0
  7  8  1  0
  8  9  1  0
  9 10  2  0
  9 11  1  0
 11 12  1  0
 12 13  1  0
 13 14  1  0
 14 15  1  0
  7 16  1  0
 16 17  1  0
 16 18  1  0
 18  5  2  0
A    1
 C1 
A    2
 O1 
A    3
 C2 
A    4
 O2 
A    5
 C3 
A    6
 C4 
A    7
 C5 
A    8
 N1 
A    9
 C6 
A   10
 O3 
A   11
 C7 
A   12
 C8 
A   13
 C9 
A   14
 S1 
A   15
 C10
A   16
 N2 
A   17
 C11
A   18
 N3 
M  END
>  <similarity>  (114) 
1.0

>  <smiles>  (114) 
COC(=O)c1cc(NC(=O)CCCSC)n(C)n1

>  <cmpd_id>  (114) 
ENAMINE:Z3087213069

>  <used_subnode>  (114) 
c1cn[nH]c1

>  <used_synthon>  (114) 
CSCCCC(=O)N[Xe]

>  <ref_subnode>  (114) 
c1cn[nH]c1

>  <ref_synthon>  (114) 
N#CCC(=O)N[Xe]

>  <fragmentA>  (114) 
x0556_0A

>  <fragmentB>  (114) 
x0310_0A

>  <HA>  (114) 
18

>  <HBD>  (114) 
1

>  <HBA>  (114) 
6

>  <MW>  (114) 
271.099062404

>  <TPSA>  (114) 
73.22

>  <LogP>  (114) 
1.2884

>  <RBs>  (114) 
6

>  <G_bound>  (114) 
-9.395042338944622

>  <G_unbound>  (114) 
0.33047384944076896

>  <deltaG>  (114) 
-9.725516188385392

>  <comRMSD>  (114) 
0.27946906666116283

>  <substructure_overlap_check>  (114) 
True

>  <energy_ratio_check>  (114) 
True

>  <const_energy/unconst_energy>  (114) 
3.7642437321202467

>  <sucos>  (114) 
0.5453665849102458

>  <interactions>  (114) 
Hydrophobic_PRO-107,Hydrophobic_HIS-21,Hydrophobic_TYR-89,HBDonor_SER-125,Hydrophobic_TYR-90

>  <total_num_ints>  (114) 
5

>  <total_num_ints_nonhyd>  (114) 
1

>  <num_uniq_frag_ints>  (114) 
1

>  <num_repl_uniq_ints>  (114) 
1

>  <num_uniq_ints_lost>  (114) 
0

>  <num_new_uniq_ints>  (114) 
4

>  <int_check>  (114) 
True

>  <ref_url>  (114) 
https://pubs.acs.org/doi/10.1021/acs.jcim.3c00276?fig=tgr1&ref=pdf

>  <submitter_name>  (114) 
Steph Wills

>  <submitter_institution>  (114) 
University of Oxford

>  <submitter_email>  (114) 
stephanie.wills@balliol.ox.ac.uk

>  <generation_date>  (114) 
2023-11-23

>  <method>  (114) 
FragNetv2

>  <original SMILES>  (114) 
COC(=O)c1cc(NC(=O)CCCSC)n(C)n1

>  <original_name>  (114) 
x0556_0A-x0310_0A_17121_B1X_rgrp-0

>  <ref_mols>  (114) 
x0556_0A,x0310_0A

>  <ref_pdb>  (114) 
x0310_0A

>  <rationale>  (114) 
FragNet: 1 round bioisosteric merging incl c1cn[nH]c1 and CSCCCC(=O)N[Xe] replacing N#CCC(=O)N[Xe]

$$$$
x0556_0A-x0310_0A_12_PXX
     RDKit          3D

 15 16  0  0  0  0  0  0  0  0999 V2000
    5.6260   10.1890   26.8020 C   0  0  0  0  0  0  0  0  0  0  0  0
    6.3170   11.4160   26.2930 C   0  0  0  0  0  0  0  0  0  0  0  0
    7.4710   11.1950   25.2520 C   0  0  0  0  0  0  0  0  0  0  0  0
    8.1110   12.2650   24.6110 C   0  0  0  0  0  0  0  0  0  0  0  0
    9.0560   11.6880   23.8030 C   0  0  0  0  0  0  0  0  0  0  0  0
    9.9680   12.3290   22.9700 N   0  0  0  0  0  0  0  0  0  0  0  0
   10.8520   13.2270   23.5470 C   0  0  0  0  0  0  0  0  0  0  0  0
   10.6930   13.6940   24.6710 O   0  0  0  0  0  0  0  0  0  0  0  0
   12.0450   13.6190   22.7160 C   0  0  0  0  0  0  0  0  0  0  0  0
   12.1150   15.0650   22.6090 C   0  0  0  0  0  0  0  0  0  0  0  0
   12.1150   16.2130   22.5340 N   0  0  0  0  0  0  0  0  0  0  0  0
    8.9230   10.3300   23.9990 N   0  0  0  0  0  0  0  0  0  0  0  0
    7.9540   10.0080   24.8860 N   0  0  0  0  0  0  0  0  0  0  0  0
    6.5030   12.5530   27.2830 C   0  0  0  0  0  0  0  0  0  0  0  0
    5.5060   12.6910   26.1710 C   0  0  0  0  0  0  0  0  0  0  0  0
  1  2  1  0
  2  3  1  0
  3  4  1  0
  4  5  2  0
  5  6  1  0
  6  7  1  0
  7  8  2  0
  7  9  1  0
  9 10  1  0
 10 11  3  0
  5 12  1  0
 12 13  1  0
  2 14  1  0
 14 15  1  0
 15  2  1  0
 13  3  2  0
A    1
 C1 
A    2
 C2 
A    3
 C3 
A    4
 C4 
A    5
 C5 
A    6
 N1 
A    7
 C6 
A    8
 O1 
A    9
 C7 
A   10
 C8 
A   11
 N2 
A   12
 N3 
A   13
 N4 
A   14
 C9 
A   15
 C10
M  END
>  <similarity>  (115) 
NA

>  <smiles>  (115) 
CC1(c2cc(NC(=O)CC#N)[nH]n2)CC1

>  <cmpd_id>  (115) 
ENAMINE:Z3207230890

>  <used_subnode>  (115) 
NA

>  <used_synthon>  (115) 
NA

>  <ref_subnode>  (115) 
c1cn[nH]c1

>  <ref_synthon>  (115) 
N#CCC(=O)N[Xe]

>  <fragmentA>  (115) 
x0556_0A

>  <fragmentB>  (115) 
x0310_0A

>  <HA>  (115) 
15

>  <HBD>  (115) 
2

>  <HBA>  (115) 
3

>  <MW>  (115) 
204.101111004

>  <TPSA>  (115) 
81.57000000000001

>  <LogP>  (115) 
1.3133799999999998

>  <RBs>  (115) 
3

>  <G_bound>  (115) 
-6.413745605488558

>  <G_unbound>  (115) 
0.4374428261011021

>  <deltaG>  (115) 
-6.8511884315896605

>  <comRMSD>  (115) 
0.35919957628076904

>  <substructure_overlap_check>  (115) 
True

>  <energy_ratio_check>  (115) 
True

>  <const_energy/unconst_energy>  (115) 
1.0867631906342292

>  <sucos>  (115) 
0.5457127243839003

>  <interactions>  (115) 
Hydrophobic_HIS-21,Hydrophobic_PRO-107,HBDonor_SER-125

>  <total_num_ints>  (115) 
3

>  <total_num_ints_nonhyd>  (115) 
1

>  <num_uniq_frag_ints>  (115) 
1

>  <num_repl_uniq_ints>  (115) 
1

>  <num_uniq_ints_lost>  (115) 
0

>  <num_new_uniq_ints>  (115) 
2

>  <int_check>  (115) 
True

>  <ref_url>  (115) 
https://pubs.acs.org/doi/10.1021/acs.jcim.3c00276?fig=tgr1&ref=pdf

>  <submitter_name>  (115) 
Steph Wills

>  <submitter_institution>  (115) 
University of Oxford

>  <submitter_email>  (115) 
stephanie.wills@balliol.ox.ac.uk

>  <generation_date>  (115) 
2023-11-23

>  <method>  (115) 
FragNetv2

>  <original SMILES>  (115) 
CC1(c2cc(NC(=O)CC#N)[nH]n2)CC1

>  <original_name>  (115) 
x0556_0A-x0310_0A_12_PXX

>  <ref_mols>  (115) 
x0556_0A,x0310_0A

>  <ref_pdb>  (115) 
x0310_0A

>  <rationale>  (115) 
FragNet: perfect merge incl c1cn[nH]c1,N#CCC(=O)N[Xe]

$$$$
x0556_0A-x0310_0A_50014_B1X_rgrp-0
     RDKit          3D

 22 23  0  0  0  0  0  0  0  0999 V2000
    3.1160   13.8510   27.4230 C   0  0  0  0  0  0  0  0  0  0  0  0
    4.0280   12.6370   27.3360 C   0  0  0  0  0  0  0  0  0  0  0  0
    3.7250   11.5980   28.2410 C   0  0  0  0  0  0  0  0  0  0  0  0
    4.6620   10.4170   28.1050 C   0  0  0  0  0  0  0  0  0  0  0  0
    5.7440   10.4020   27.1290 C   0  0  0  0  0  0  0  0  0  0  0  0
    6.0030   11.4580   26.2560 C   0  0  0  0  0  0  0  0  0  0  0  0
    7.1990   11.2280   25.2990 C   0  0  0  0  0  0  0  0  0  0  0  0
    7.7680   12.3930   24.5480 C   0  0  0  0  0  0  0  0  0  0  0  0
    8.8830   11.7770   23.7400 C   0  0  0  0  0  0  0  0  0  0  0  0
    9.7910   12.3200   22.8470 N   0  0  0  0  0  0  0  0  0  0  0  0
   10.5680   13.3930   23.1640 C   0  0  0  0  0  0  0  0  0  0  0  0
   10.4820   13.9060   24.2720 O   0  0  0  0  0  0  0  0  0  0  0  0
   11.5060   13.9610   22.2340 C   0  0  0  0  0  0  0  0  0  0  0  0
   12.5790   15.2360   22.9440 S   0  0  0  0  0  0  0  0  0  0  0  0
   12.6800   14.4640   24.5500 C   0  0  0  0  0  0  0  0  0  0  0  0
   11.7360   14.9360   25.4010 F   0  0  0  0  0  0  0  0  0  0  0  0
   13.8720   14.5860   25.1610 F   0  0  0  0  0  0  0  0  0  0  0  0
   12.4910   13.1440   24.3940 F   0  0  0  0  0  0  0  0  0  0  0  0
    8.8510   10.3480   24.0980 N   0  0  0  0  0  0  0  0  0  0  0  0
    7.8830    9.9770   25.0060 N   0  0  0  0  0  0  0  0  0  0  0  0
    5.1870   12.6080   26.3030 C   0  0  0  0  0  0  0  0  0  0  0  0
    5.4040   13.7510   25.4150 C   0  0  0  0  0  0  0  0  0  0  0  0
  1  2  1  0
  2  3  2  0
  3  4  1  0
  4  5  2  0
  5  6  1  0
  6  7  1  0
  7  8  1  0
  8  9  2  0
  9 10  1  0
 10 11  1  0
 11 12  2  0
 11 13  1  0
 13 14  1  0
 14 15  1  0
 15 16  1  0
 15 17  1  0
 15 18  1  0
  9 19  1  0
 19 20  1  0
  6 21  2  0
 21 22  1  0
 21  2  1  0
 20  7  2  0
A    1
 C1 
A    2
 C2 
A    3
 C3 
A    4
 C4 
A    5
 C5 
A    6
 C6 
A    7
 C7 
A    8
 C8 
A    9
 C9 
A   10
 N1 
A   11
 C10
A   12
 O1 
A   13
 C11
A   14
 S1 
A   15
 C12
A   16
 F1 
A   17
 F2 
A   18
 F3 
A   19
 N2 
A   20
 N3 
A   21
 C13
A   22
 C14
M  END
>  <similarity>  (116) 
1.0

>  <smiles>  (116) 
Cc1cccc(-c2cc(NC(=O)CSC(F)(F)F)[nH]n2)c1C

>  <cmpd_id>  (116) 
ENAMINE:Z1025862940

>  <used_subnode>  (116) 
c1cn[nH]c1

>  <used_synthon>  (116) 
O=C(CSC(F)(F)F)N[Xe]

>  <ref_subnode>  (116) 
c1cn[nH]c1

>  <ref_synthon>  (116) 
N#CCC(=O)N[Xe]

>  <fragmentA>  (116) 
x0556_0A

>  <fragmentB>  (116) 
x0310_0A

>  <HA>  (116) 
22

>  <HBD>  (116) 
2

>  <HBA>  (116) 
3

>  <MW>  (116) 
329.0809677280001

>  <TPSA>  (116) 
57.78

>  <LogP>  (116) 
3.885040000000002

>  <RBs>  (116) 
4

>  <G_bound>  (116) 
-4.3496585878281975

>  <G_unbound>  (116) 
0.40474459455477235

>  <deltaG>  (116) 
-4.75440318238297

>  <comRMSD>  (116) 
0.2465109925246801

>  <substructure_overlap_check>  (116) 
True

>  <energy_ratio_check>  (116) 
True

>  <const_energy/unconst_energy>  (116) 
4.790518757822508

>  <sucos>  (116) 
0.5459510997394224

>  <interactions>  (116) 
Hydrophobic_PRO-107,Hydrophobic_HIS-21,Hydrophobic_TYR-89,HBDonor_SER-125

>  <total_num_ints>  (116) 
4

>  <total_num_ints_nonhyd>  (116) 
1

>  <num_uniq_frag_ints>  (116) 
1

>  <num_repl_uniq_ints>  (116) 
1

>  <num_uniq_ints_lost>  (116) 
0

>  <num_new_uniq_ints>  (116) 
3

>  <int_check>  (116) 
True

>  <ref_url>  (116) 
https://pubs.acs.org/doi/10.1021/acs.jcim.3c00276?fig=tgr1&ref=pdf

>  <submitter_name>  (116) 
Steph Wills

>  <submitter_institution>  (116) 
University of Oxford

>  <submitter_email>  (116) 
stephanie.wills@balliol.ox.ac.uk

>  <generation_date>  (116) 
2023-11-23

>  <method>  (116) 
FragNetv2

>  <original SMILES>  (116) 
Cc1cccc(-c2cc(NC(=O)CSC(F)(F)F)[nH]n2)c1C

>  <original_name>  (116) 
x0556_0A-x0310_0A_50014_B1X_rgrp-0

>  <ref_mols>  (116) 
x0556_0A,x0310_0A

>  <ref_pdb>  (116) 
x0310_0A

>  <rationale>  (116) 
FragNet: 1 round bioisosteric merging incl c1cn[nH]c1 and O=C(CSC(F)(F)F)N[Xe] replacing N#CCC(=O)N[Xe]

$$$$
x0556_0A-x0310_0A_36847_B1X
     RDKit          3D

 18 18  0  0  0  0  0  0  0  0999 V2000
   10.7290    8.8540   23.2070 C   0  0  0  0  0  0  0  0  0  0  0  0
    9.5800    9.3180   22.8320 C   0  0  0  0  0  0  0  0  0  0  0  0
    8.8550   10.2020   23.7400 N   0  0  0  0  0  0  0  0  0  0  0  0
    7.9590    9.7260   24.6850 N   0  0  0  0  0  0  0  0  0  0  0  0
    7.4580   10.8320   25.2720 C   0  0  0  0  0  0  0  0  0  0  0  0
    6.3810   10.6530   26.3590 C   0  0  0  0  0  0  0  0  0  0  0  0
    8.1270   12.0500   24.6530 C   0  0  0  0  0  0  0  0  0  0  0  0
    8.9690   11.5550   23.7200 C   0  0  0  0  0  0  0  0  0  0  0  0
    9.7410   12.3750   22.9450 N   0  0  0  0  0  0  0  0  0  0  0  0
   10.6110   13.2070   23.4410 C   0  0  0  0  0  0  0  0  0  0  0  0
   10.6400   13.6430   24.5840 O   0  0  0  0  0  0  0  0  0  0  0  0
   11.5430   13.5680   22.4800 C   0  0  0  0  0  0  0  0  0  0  0  0
   12.5740   14.5190   22.9530 C   0  0  0  0  0  0  0  0  0  0  0  0
   11.8450   15.7160   23.2510 C   0  0  0  0  0  0  0  0  0  0  0  0
   13.4150   15.0130   21.8240 C   0  0  0  0  0  0  0  0  0  0  0  0
   13.1220   13.9060   24.2570 C   0  0  0  0  0  0  0  0  0  0  0  0
   12.4820   14.4610   25.3120 F   0  0  0  0  0  0  0  0  0  0  0  0
   14.4170   14.0910   24.5190 F   0  0  0  0  0  0  0  0  0  0  0  0
  1  2  1  0
  2  3  1  0
  3  4  1  0
  4  5  2  0
  5  6  1  0
  5  7  1  0
  7  8  2  0
  8  9  1  0
  9 10  1  0
 10 11  2  0
 10 12  1  0
 12 13  1  0
 13 14  1  0
 13 15  1  0
 13 16  1  0
 16 17  1  0
 16 18  1  0
  8  3  1  0
A    1
 C1 
A    2
 C2 
A    3
 N1 
A    4
 N2 
A    5
 C3 
A    6
 C4 
A    7
 C5 
A    8
 C6 
A    9
 N3 
A   10
 C7 
A   11
 O1 
A   12
 C8 
A   13
 C9 
A   14
 C10
A   15
 C11
A   16
 C12
A   17
 F1 
A   18
 F2 
M  END
>  <similarity>  (117) 
1.0

>  <smiles>  (117) 
CCn1nc(C)cc1NC(=O)CC(C)(C)C(F)F

>  <cmpd_id>  (117) 
ENAMINE:Z2961145383

>  <used_subnode>  (117) 
c1cn[nH]c1

>  <used_synthon>  (117) 
CC(C)(CC(=O)N[Xe])C(F)F

>  <ref_subnode>  (117) 
c1cn[nH]c1

>  <ref_synthon>  (117) 
N#CCC(=O)N[Xe]

>  <fragmentA>  (117) 
x0556_0A

>  <fragmentB>  (117) 
x0310_0A

>  <HA>  (117) 
18

>  <HBD>  (117) 
1

>  <HBA>  (117) 
3

>  <MW>  (117) 
259.149618668

>  <TPSA>  (117) 
46.92

>  <LogP>  (117) 
2.8313200000000007

>  <RBs>  (117) 
5

>  <G_bound>  (117) 
-5.594930899739711

>  <G_unbound>  (117) 
0.3119068028809787

>  <deltaG>  (117) 
-5.90683770262069

>  <comRMSD>  (117) 
0.4498360024851345

>  <UFFGibbs>  (117) 
217.16620944897716

>  <strain_per_HA>  (117) 
12.064789413832065

>  <substructure_overlap_check>  (117) 
True

>  <energy_ratio_check>  (117) 
True

>  <const_energy/unconst_energy>  (117) 
1.0127228242597228

>  <sucos>  (117) 
0.5460927582544818

>  <interactions>  (117) 
HBDonor_SER-125,Hydrophobic_TYR-90,Hydrophobic_HIS-21,Hydrophobic_PRO-107,Hydrophobic_CYS-110,Hydrophobic_VAL-124,Hydrophobic_TYR-89,Hydrophobic_ASP-109

>  <total_num_ints>  (117) 
8

>  <total_num_ints_nonhyd>  (117) 
1

>  <num_uniq_frag_ints>  (117) 
1

>  <num_repl_uniq_ints>  (117) 
1

>  <num_uniq_ints_lost>  (117) 
0

>  <num_new_uniq_ints>  (117) 
7

>  <int_check>  (117) 
True

>  <ref_url>  (117) 
https://pubs.acs.org/doi/10.1021/acs.jcim.3c00276?fig=tgr1&ref=pdf

>  <submitter_name>  (117) 
Steph Wills

>  <submitter_institution>  (117) 
University of Oxford

>  <submitter_email>  (117) 
stephanie.wills@balliol.ox.ac.uk

>  <generation_date>  (117) 
2023-11-23

>  <method>  (117) 
FragNetv2

>  <original SMILES>  (117) 
CCn1nc(C)cc1NC(=O)CC(C)(C)C(F)F

>  <original_name>  (117) 
x0556_0A-x0310_0A_36847_B1X

>  <ref_mols>  (117) 
x0556_0A,x0310_0A

>  <ref_pdb>  (117) 
x0310_0A

>  <rationale>  (117) 
FragNet: 1 round bioisosteric merging incl c1cn[nH]c1 and CC(C)(CC(=O)N[Xe])C(F)F replacing N#CCC(=O)N[Xe]

$$$$
x0556_0A-x0310_0A_50773_B1X
     RDKit          3D

 18 18  0  0  0  0  0  0  0  0999 V2000
    6.4800   14.1230   23.8040 C   0  0  0  0  0  0  0  0  0  0  0  0
    7.0540   13.4010   25.3690 S   0  0  0  0  0  0  0  0  0  0  0  0
    7.8210   11.8540   24.7700 C   0  0  0  0  0  0  0  0  0  0  0  0
    7.3730   10.5640   25.2890 C   0  0  0  0  0  0  0  0  0  0  0  0
    8.0750    9.5050   24.7210 N   0  0  0  0  0  0  0  0  0  0  0  0
    8.9750   10.0780   23.8380 N   0  0  0  0  0  0  0  0  0  0  0  0
    9.8780    9.2840   23.0620 C   0  0  0  0  0  0  0  0  0  0  0  0
    8.9100   11.4000   23.7930 C   0  0  0  0  0  0  0  0  0  0  0  0
    9.6790   12.1990   23.0230 N   0  0  0  0  0  0  0  0  0  0  0  0
   10.2790   13.3000   23.6810 C   0  0  0  0  0  0  0  0  0  0  0  0
   10.1560   13.5770   24.8530 O   0  0  0  0  0  0  0  0  0  0  0  0
   11.1070   14.0990   22.7540 C   0  0  0  0  0  0  0  0  0  0  0  0
   12.2450   14.6060   23.5410 C   0  0  0  0  0  0  0  0  0  0  0  0
   13.4150   14.6490   22.8760 C   0  0  0  0  0  0  0  0  0  0  0  0
   13.0380   15.3720   21.6360 C   0  0  0  0  0  0  0  0  0  0  0  0
   12.0480   16.4390   21.8140 C   0  0  0  0  0  0  0  0  0  0  0  0
   12.5710   14.5220   20.7000 F   0  0  0  0  0  0  0  0  0  0  0  0
   14.0850   15.9600   21.0750 F   0  0  0  0  0  0  0  0  0  0  0  0
  1  2  1  0
  2  3  1  0
  3  4  1  0
  4  5  2  0
  5  6  1  0
  6  7  1  0
  6  8  1  0
  8  9  1  0
  9 10  1  0
 10 11  2  0
 10 12  1  0
 12 13  1  0
 13 14  1  0
 14 15  1  0
 15 16  1  0
 15 17  1  0
 15 18  1  0
  8  3  2  0
A    1
 C1 
A    2
 S1 
A    3
 C2 
A    4
 C3 
A    5
 N1 
A    6
 N2 
A    7
 C4 
A    8
 C5 
A    9
 N3 
A   10
 C6 
A   11
 O1 
A   12
 C7 
A   13
 C8 
A   14
 C9 
A   15
 C10
A   16
 C11
A   17
 F1 
A   18
 F2 
M  END
>  <similarity>  (118) 
1.0

>  <smiles>  (118) 
CSc1cnn(C)c1NC(=O)CCCC(C)(F)F

>  <cmpd_id>  (118) 
ENAMINE:Z4601763512

>  <used_subnode>  (118) 
c1cn[nH]c1

>  <used_synthon>  (118) 
CC(F)(F)CCCC(=O)N[Xe]

>  <ref_subnode>  (118) 
c1cn[nH]c1

>  <ref_synthon>  (118) 
N#CCC(=O)N[Xe]

>  <fragmentA>  (118) 
x0556_0A

>  <fragmentB>  (118) 
x0310_0A

>  <HA>  (118) 
18

>  <HBD>  (118) 
1

>  <HBA>  (118) 
4

>  <MW>  (118) 
277.106039604

>  <TPSA>  (118) 
46.92

>  <LogP>  (118) 
2.9060000000000015

>  <RBs>  (118) 
6

>  <G_bound>  (118) 
-6.67085318203463

>  <G_unbound>  (118) 
0.8287798027797887

>  <deltaG>  (118) 
-7.4996329848144185

>  <comRMSD>  (118) 
0.8429173007674879

>  <UFFGibbs>  (118) 
434.4855877715784

>  <strain_per_HA>  (118) 
24.138088209532135

>  <substructure_overlap_check>  (118) 
True

>  <energy_ratio_check>  (118) 
True

>  <const_energy/unconst_energy>  (118) 
1.0933597788404432

>  <sucos>  (118) 
0.5472328664817719

>  <interactions>  (118) 
HBDonor_SER-125,Hydrophobic_TYR-90,Hydrophobic_HIS-21,Hydrophobic_PRO-107,Hydrophobic_TYR-89

>  <total_num_ints>  (118) 
5

>  <total_num_ints_nonhyd>  (118) 
1

>  <num_uniq_frag_ints>  (118) 
1

>  <num_repl_uniq_ints>  (118) 
1

>  <num_uniq_ints_lost>  (118) 
0

>  <num_new_uniq_ints>  (118) 
4

>  <int_check>  (118) 
True

>  <ref_url>  (118) 
https://pubs.acs.org/doi/10.1021/acs.jcim.3c00276?fig=tgr1&ref=pdf

>  <submitter_name>  (118) 
Steph Wills

>  <submitter_institution>  (118) 
University of Oxford

>  <submitter_email>  (118) 
stephanie.wills@balliol.ox.ac.uk

>  <generation_date>  (118) 
2023-11-23

>  <method>  (118) 
FragNetv2

>  <original SMILES>  (118) 
CSc1cnn(C)c1NC(=O)CCCC(C)(F)F

>  <original_name>  (118) 
x0556_0A-x0310_0A_50773_B1X

>  <ref_mols>  (118) 
x0556_0A,x0310_0A

>  <ref_pdb>  (118) 
x0310_0A

>  <rationale>  (118) 
FragNet: 1 round bioisosteric merging incl c1cn[nH]c1 and CC(F)(F)CCCC(=O)N[Xe] replacing N#CCC(=O)N[Xe]

$$$$
x0310_0A-x0556_0A_124_B1X_rgrp-2
     RDKit          3D

 13 13  0  0  0  0  0  0  0  0999 V2000
    8.1620   13.8620   24.6860 C   0  0  0  0  0  0  0  0  0  0  0  0
    8.2400   12.3730   24.5790 C   0  0  0  0  0  0  0  0  0  0  0  0
    7.3390   11.6100   25.3190 C   0  0  0  0  0  0  0  0  0  0  0  0
    7.4090   10.2400   25.2260 C   0  0  0  0  0  0  0  0  0  0  0  0
    8.3060    9.5850   24.4500 N   0  0  0  0  0  0  0  0  0  0  0  0
    9.1740   10.3360   23.7410 C   0  0  0  0  0  0  0  0  0  0  0  0
    9.1930   11.7260   23.7610 C   0  0  0  0  0  0  0  0  0  0  0  0
   10.1040   12.5220   23.0260 N   0  0  0  0  0  0  0  0  0  0  0  0
   11.0090   13.3750   23.6320 C   0  0  0  0  0  0  0  0  0  0  0  0
   10.8950   13.8480   24.7590 O   0  0  0  0  0  0  0  0  0  0  0  0
   12.2090   13.7220   22.7930 C   0  0  0  0  0  0  0  0  0  0  0  0
   12.1730   15.1320   22.4360 C   0  0  0  0  0  0  0  0  0  0  0  0
   12.0740   16.2480   22.1600 N   0  0  0  0  0  0  0  0  0  0  0  0
  1  2  1  0
  2  3  2  0
  3  4  1  0
  4  5  2  0
  5  6  1  0
  6  7  2  0
  7  8  1  0
  8  9  1  0
  9 10  2  0
  9 11  1  0
 11 12  1  0
 12 13  3  0
  7  2  1  0
A    1
 C1 
A    2
 C2 
A    3
 C3 
A    4
 C4 
A    5
 N1 
A    6
 C5 
A    7
 C6 
A    8
 N2 
A    9
 C7 
A   10
 O1 
A   11
 C8 
A   12
 C9 
A   13
 N3 
M  END
>  <similarity>  (119) 
1.0

>  <smiles>  (119) 
Cc1ccncc1NC(=O)CC#N

>  <cmpd_id>  (119) 
ENAMINE:Z1688544906,CHEMSPACE-BB:CSMB00011846363,ENAMINE:PV-002283438969

>  <used_subnode>  (119) 
N#CCC(N)=O

>  <used_synthon>  (119) 
[Xe]c1cccnc1

>  <ref_subnode>  (119) 
N#CCC(N)=O

>  <ref_synthon>  (119) 
[Xe]n1cccn1

>  <fragmentA>  (119) 
x0310_0A

>  <fragmentB>  (119) 
x0556_0A

>  <HA>  (119) 
13

>  <HBD>  (119) 
1

>  <HBA>  (119) 
3

>  <MW>  (119) 
175.074561908

>  <TPSA>  (119) 
65.78

>  <LogP>  (119) 
1.2421999999999997

>  <RBs>  (119) 
2

>  <G_bound>  (119) 
-6.650120699282656

>  <G_unbound>  (119) 
0.3607665648465873

>  <deltaG>  (119) 
-7.010887264129243

>  <comRMSD>  (119) 
0.28265023516338666

>  <substructure_overlap_check>  (119) 
True

>  <energy_ratio_check>  (119) 
True

>  <const_energy/unconst_energy>  (119) 
2.0405082897176743

>  <sucos>  (119) 
0.5474809215219937

>  <interactions>  (119) 
Hydrophobic_HIS-21,Hydrophobic_PRO-107,HBDonor_SER-125,HBAcceptor_SER-105

>  <total_num_ints>  (119) 
4

>  <total_num_ints_nonhyd>  (119) 
2

>  <num_uniq_frag_ints>  (119) 
1

>  <num_repl_uniq_ints>  (119) 
1

>  <num_uniq_ints_lost>  (119) 
0

>  <num_new_uniq_ints>  (119) 
3

>  <int_check>  (119) 
True

>  <ref_url>  (119) 
https://pubs.acs.org/doi/10.1021/acs.jcim.3c00276?fig=tgr1&ref=pdf

>  <submitter_name>  (119) 
Steph Wills

>  <submitter_institution>  (119) 
University of Oxford

>  <submitter_email>  (119) 
stephanie.wills@balliol.ox.ac.uk

>  <generation_date>  (119) 
2023-11-23

>  <method>  (119) 
FragNetv2

>  <original SMILES>  (119) 
Cc1ccncc1NC(=O)CC#N

>  <original_name>  (119) 
x0310_0A-x0556_0A_124_B1X_rgrp-2

>  <ref_mols>  (119) 
x0310_0A,x0556_0A

>  <ref_pdb>  (119) 
x0310_0A

>  <rationale>  (119) 
FragNet: 1 round bioisosteric merging incl N#CCC(N)=O and [Xe]c1cccnc1 replacing [Xe]n1cccn1

$$$$
x0556_0A-x0310_0A_20919_B1X
     RDKit          3D

 20 20  0  0  0  0  0  0  0  0999 V2000
    7.9090   13.5940   24.9500 C   0  0  0  0  0  0  0  0  0  0  0  0
    8.1070   12.1030   24.7410 C   0  0  0  0  0  0  0  0  0  0  0  0
    7.3660   11.0600   25.4670 C   0  0  0  0  0  0  0  0  0  0  0  0
    6.3120   11.3670   26.5370 C   0  0  0  0  0  0  0  0  0  0  0  0
    5.5010   10.1390   26.9540 C   0  0  0  0  0  0  0  0  0  0  0  0
    5.4110   12.5050   26.1600 C   0  0  0  0  0  0  0  0  0  0  0  0
    7.8030    9.8810   25.0190 N   0  0  0  0  0  0  0  0  0  0  0  0
    8.7860   10.1680   24.0620 N   0  0  0  0  0  0  0  0  0  0  0  0
    9.0490   11.4800   23.8220 C   0  0  0  0  0  0  0  0  0  0  0  0
    9.9620   12.0280   22.9580 N   0  0  0  0  0  0  0  0  0  0  0  0
   10.6830   13.1510   23.4420 C   0  0  0  0  0  0  0  0  0  0  0  0
   10.5740   13.5480   24.5970 O   0  0  0  0  0  0  0  0  0  0  0  0
   11.5090   13.7990   22.5450 C   0  0  2  0  0  0  0  0  0  0  0  0
   12.2270   14.9770   23.1070 C   0  0  0  0  0  0  0  0  0  0  0  0
   12.4660   15.6820   21.8260 C   0  0  0  0  0  0  0  0  0  0  0  0
   13.7490   15.7850   21.1490 C   0  0  0  0  0  0  0  0  0  0  0  0
   11.9070   17.0510   21.7910 C   0  0  0  0  0  0  0  0  0  0  0  0
   10.8570   14.4310   21.4670 C   0  0  0  0  0  0  0  0  0  0  0  0
    9.5010   14.3470   21.0970 C   0  0  0  0  0  0  0  0  0  0  0  0
   11.7250   14.3140   20.2000 C   0  0  0  0  0  0  0  0  0  0  0  0
  1  2  1  0
  2  3  1  0
  3  4  1  0
  4  5  1  0
  4  6  1  0
  3  7  2  0
  7  8  1  0
  8  9  1  0
  9 10  1  0
 10 11  1  0
 11 12  2  0
 11 13  1  0
 13 14  1  1
 14 15  1  0
 15 16  1  0
 15 17  1  0
 13 18  1  0
 18 19  1  0
 18 20  1  0
  9  2  2  0
A    1
 C1 
A    2
 C2 
A    3
 C3 
A    4
 C4 
A    5
 C5 
A    6
 C6 
A    7
 N1 
A    8
 N2 
A    9
 C7 
A   10
 N3 
A   11
 C8 
A   12
 O1 
A   13
 C9 
A   14
 C10
A   15
 C11
A   16
 C12
A   17
 C13
A   18
 C14
A   19
 C15
A   20
 C16
M  END
>  <similarity>  (120) 
1.0

>  <smiles>  (120) 
Cc1c(C(C)C)n[nH]c1NC(=O)C(CC(C)C)C(C)C

>  <cmpd_id>  (120) 
ENAMINE:PV-002168009128

>  <used_subnode>  (120) 
c1cn[nH]c1

>  <used_synthon>  (120) 
CC(C)CC(C(=O)N[Xe])C(C)C

>  <ref_subnode>  (120) 
c1cn[nH]c1

>  <ref_synthon>  (120) 
N#CCC(=O)N[Xe]

>  <fragmentA>  (120) 
x0556_0A

>  <fragmentB>  (120) 
x0310_0A

>  <HA>  (120) 
20

>  <HBD>  (120) 
2

>  <HBA>  (120) 
2

>  <MW>  (120) 
279.231062548

>  <TPSA>  (120) 
57.78

>  <LogP>  (120) 
4.098320000000004

>  <RBs>  (120) 
6

>  <G_bound>  (120) 
-8.61821980422771

>  <G_unbound>  (120) 
-1.07672508498032

>  <deltaG>  (120) 
-7.54149471924739

>  <comRMSD>  (120) 
0.5179911420491261

>  <UFFGibbs>  (120) 
20646.43948006283

>  <strain_per_HA>  (120) 
1032.3219740031413

>  <substructure_overlap_check>  (120) 
True

>  <energy_ratio_check>  (120) 
True

>  <const_energy/unconst_energy>  (120) 
1.1033631755579314

>  <sucos>  (120) 
0.54784454585939

>  <interactions>  (120) 
Hydrophobic_VAL-84,HBDonor_SER-125,Hydrophobic_TYR-90,Hydrophobic_HIS-21,Hydrophobic_PRO-107,Hydrophobic_TYR-89,Hydrophobic_THR-126

>  <total_num_ints>  (120) 
7

>  <total_num_ints_nonhyd>  (120) 
1

>  <num_uniq_frag_ints>  (120) 
1

>  <num_repl_uniq_ints>  (120) 
1

>  <num_uniq_ints_lost>  (120) 
0

>  <num_new_uniq_ints>  (120) 
6

>  <int_check>  (120) 
True

>  <ref_url>  (120) 
https://pubs.acs.org/doi/10.1021/acs.jcim.3c00276?fig=tgr1&ref=pdf

>  <submitter_name>  (120) 
Steph Wills

>  <submitter_institution>  (120) 
University of Oxford

>  <submitter_email>  (120) 
stephanie.wills@balliol.ox.ac.uk

>  <generation_date>  (120) 
2023-11-23

>  <method>  (120) 
FragNetv2

>  <original SMILES>  (120) 
Cc1c(C(C)C)n[nH]c1NC(=O)C(CC(C)C)C(C)C

>  <original_name>  (120) 
x0556_0A-x0310_0A_20919_B1X

>  <ref_mols>  (120) 
x0556_0A,x0310_0A

>  <ref_pdb>  (120) 
x0310_0A

>  <rationale>  (120) 
FragNet: 1 round bioisosteric merging incl c1cn[nH]c1 and CC(C)CC(C(=O)N[Xe])C(C)C replacing N#CCC(=O)N[Xe]

$$$$
x0556_0A-x0310_0A_54726_B1X
     RDKit          3D

 21 22  0  0  0  0  0  0  0  0999 V2000
   10.5000   15.8760   18.8720 C   0  0  0  0  0  0  0  0  0  0  0  0
   10.7000   14.7980   19.9060 C   0  0  0  0  0  0  0  0  0  0  0  0
    9.5110   14.7430   20.8870 C   0  0  0  0  0  0  0  0  0  0  0  0
   12.0360   14.8850   20.6620 C   0  0  0  0  0  0  0  0  0  0  0  0
   12.0050   15.8930   22.0460 S   0  0  0  0  0  0  0  0  0  0  0  0
   12.1660   14.6870   23.3890 C   0  0  0  0  0  0  0  0  0  0  0  0
   11.9810   13.3330   23.0370 C   0  0  0  0  0  0  0  0  0  0  0  0
   10.6550   13.2130   23.8080 C   0  0  0  0  0  0  0  0  0  0  0  0
   10.4430   13.8160   24.8440 O   0  0  0  0  0  0  0  0  0  0  0  0
    9.7130   12.3550   23.2450 N   0  0  0  0  0  0  0  0  0  0  0  0
    8.8080   11.5870   24.0580 C   0  0  0  0  0  0  0  0  0  0  0  0
    8.7930   10.2270   24.1400 N   0  0  0  0  0  0  0  0  0  0  0  0
    7.7880   10.0000   25.0140 N   0  0  0  0  0  0  0  0  0  0  0  0
    7.1180   11.1600   25.5340 C   0  0  0  0  0  0  0  0  0  0  0  0
    5.9620   10.9220   26.5490 C   0  0  0  0  0  0  0  0  0  0  0  0
    4.8710   11.5010   26.6750 O   0  0  0  0  0  0  0  0  0  0  0  0
    6.2320   10.0220   27.3440 O   0  0  0  0  0  0  0  0  0  0  0  0
    7.7900   12.1930   24.8990 C   0  0  0  0  0  0  0  0  0  0  0  0
    7.5900   13.7010   24.9920 C   0  0  0  0  0  0  0  0  0  0  0  0
    7.5020   14.1910   26.2920 C   0  0  0  0  0  0  0  0  0  0  0  0
    6.3050   14.3560   25.3500 C   0  0  0  0  0  0  0  0  0  0  0  0
  1  2  1  0
  2  3  1  0
  2  4  1  0
  4  5  1  0
  5  6  1  0
  6  7  1  0
  7  8  1  0
  8  9  2  0
  8 10  1  0
 10 11  1  0
 11 12  2  0
 12 13  1  0
 13 14  1  0
 14 15  1  0
 15 16  2  0
 15 17  1  0
 14 18  2  0
 18 19  1  0
 19 20  1  0
 20 21  1  0
 18 11  1  0
 21 19  1  0
A    1
 C1 
A    2
 C2 
A    3
 C3 
A    4
 C4 
A    5
 S1 
A    6
 C5 
A    7
 C6 
A    8
 C7 
A    9
 O1 
A   10
 N1 
A   11
 C8 
A   12
 N2 
A   13
 N3 
A   14
 C9 
A   15
 C10
A   16
 O2 
A   17
 O3 
A   18
 C11
A   19
 C12
A   20
 C13
A   21
 C14
M  END
>  <similarity>  (121) 
1.0

>  <smiles>  (121) 
CC(C)CSCCC(=O)Nc1n[nH]c(C(=O)O)c1C1CC1

>  <cmpd_id>  (121) 
ENAMINE:Z3510170417

>  <used_subnode>  (121) 
c1cn[nH]c1

>  <used_synthon>  (121) 
CC(C)CSCCC(=O)N[Xe]

>  <ref_subnode>  (121) 
c1cn[nH]c1

>  <ref_synthon>  (121) 
N#CCC(=O)N[Xe]

>  <fragmentA>  (121) 
x0556_0A

>  <fragmentB>  (121) 
x0310_0A

>  <HA>  (121) 
21

>  <HBD>  (121) 
3

>  <HBA>  (121) 
4

>  <MW>  (121) 
311.13036253200005

>  <TPSA>  (121) 
95.08

>  <LogP>  (121) 
2.703100000000001

>  <RBs>  (121) 
8

>  <G_bound>  (121) 
-7.428379903763981

>  <G_unbound>  (121) 
1.5936185257172153

>  <deltaG>  (121) 
-9.021998429481195

>  <comRMSD>  (121) 
0.6056740214081694

>  <UFFGibbs>  (121) 
749.2536064548162

>  <strain_per_HA>  (121) 
35.67874316451506

>  <substructure_overlap_check>  (121) 
True

>  <energy_ratio_check>  (121) 
True

>  <const_energy/unconst_energy>  (121) 
1.0133338440453423

>  <sucos>  (121) 
0.548800368677044

>  <interactions>  (121) 
Hydrophobic_VAL-84,Hydrophobic_TYR-90,Hydrophobic_HIS-21,HBDonor_SER-105,Hydrophobic_PRO-107,Hydrophobic_TYR-89,Hydrophobic_THR-126

>  <total_num_ints>  (121) 
7

>  <total_num_ints_nonhyd>  (121) 
1

>  <num_uniq_frag_ints>  (121) 
1

>  <num_repl_uniq_ints>  (121) 
1

>  <num_uniq_ints_lost>  (121) 
0

>  <num_new_uniq_ints>  (121) 
6

>  <int_check>  (121) 
True

>  <ref_url>  (121) 
https://pubs.acs.org/doi/10.1021/acs.jcim.3c00276?fig=tgr1&ref=pdf

>  <submitter_name>  (121) 
Steph Wills

>  <submitter_institution>  (121) 
University of Oxford

>  <submitter_email>  (121) 
stephanie.wills@balliol.ox.ac.uk

>  <generation_date>  (121) 
2023-11-23

>  <method>  (121) 
FragNetv2

>  <original SMILES>  (121) 
CC(C)CSCCC(=O)Nc1n[nH]c(C(=O)O)c1C1CC1

>  <original_name>  (121) 
x0556_0A-x0310_0A_54726_B1X

>  <ref_mols>  (121) 
x0556_0A,x0310_0A

>  <ref_pdb>  (121) 
x0310_0A

>  <rationale>  (121) 
FragNet: 1 round bioisosteric merging incl c1cn[nH]c1 and CC(C)CSCCC(=O)N[Xe] replacing N#CCC(=O)N[Xe]

$$$$
x0556_0A-x0310_0A_6135_B1X
     RDKit          3D

 20 20  0  0  0  0  0  0  0  0999 V2000
    7.6100   13.3290   25.1220 C   0  0  0  0  0  0  0  0  0  0  0  0
    8.1540   12.0140   24.6060 C   0  0  0  0  0  0  0  0  0  0  0  0
    7.6610   10.7210   25.1650 C   0  0  0  0  0  0  0  0  0  0  0  0
    8.2590    9.7010   24.5780 N   0  0  0  0  0  0  0  0  0  0  0  0
    9.1090   10.3020   23.6670 N   0  0  0  0  0  0  0  0  0  0  0  0
    9.9270    9.5230   22.8050 C   0  0  0  0  0  0  0  0  0  0  0  0
    9.4370    8.4280   22.2380 C   0  0  0  0  0  0  0  0  0  0  0  0
   11.0260    8.7280   23.3540 C   0  0  0  0  0  0  0  0  0  0  0  0
    9.0800   11.6290   23.6570 C   0  0  0  0  0  0  0  0  0  0  0  0
    9.8330   12.4440   22.8470 N   0  0  0  0  0  0  0  0  0  0  0  0
   10.6800   13.3400   23.3620 C   0  0  0  0  0  0  0  0  0  0  0  0
   10.6840   13.6540   24.5400 O   0  0  0  0  0  0  0  0  0  0  0  0
   11.6200   13.9160   22.3020 C   0  0  1  0  0  0  0  0  0  0  0  0
   10.8560   14.5260   21.1200 C   0  0  0  0  0  0  0  0  0  0  0  0
   12.4960   14.9590   22.9730 C   0  0  0  0  0  0  0  0  0  0  0  0
   13.6350   15.0470   22.2640 F   0  0  0  0  0  0  0  0  0  0  0  0
   11.9350   16.1840   22.9090 F   0  0  0  0  0  0  0  0  0  0  0  0
   12.7960   14.6150   24.3560 C   0  0  0  0  0  0  0  0  0  0  0  0
   13.1190   13.3030   24.4760 F   0  0  0  0  0  0  0  0  0  0  0  0
   11.7560   14.8700   25.1970 F   0  0  0  0  0  0  0  0  0  0  0  0
  1  2  1  0
  2  3  1  0
  3  4  2  0
  4  5  1  0
  5  6  1  0
  6  7  1  0
  6  8  1  0
  5  9  1  0
  9 10  1  0
 10 11  1  0
 11 12  2  0
 11 13  1  0
 13 14  1  6
 13 15  1  0
 15 16  1  0
 15 17  1  0
 15 18  1  0
 18 19  1  0
 18 20  1  0
  9  2  2  0
A    1
 C1 
A    2
 C2 
A    3
 C3 
A    4
 N1 
A    5
 N2 
A    6
 C4 
A    7
 C5 
A    8
 C6 
A    9
 C7 
A   10
 N3 
A   11
 C8 
A   12
 O1 
A   13
 C9 
A   14
 C10
A   15
 C11
A   16
 F1 
A   17
 F2 
A   18
 C12
A   19
 F3 
A   20
 F4 
M  END
>  <similarity>  (122) 
1.0

>  <smiles>  (122) 
Cc1cnn(C(C)C)c1NC(=O)C(C)C(F)(F)C(F)F

>  <cmpd_id>  (122) 
ENAMINE:Z4466639847

>  <used_subnode>  (122) 
c1cn[nH]c1

>  <used_synthon>  (122) 
CC(C(=O)N[Xe])C(F)(F)C(F)F

>  <ref_subnode>  (122) 
c1cn[nH]c1

>  <ref_synthon>  (122) 
N#CCC(=O)N[Xe]

>  <fragmentA>  (122) 
x0556_0A

>  <fragmentB>  (122) 
x0310_0A

>  <HA>  (122) 
20

>  <HBD>  (122) 
1

>  <HBA>  (122) 
3

>  <MW>  (122) 
295.130775044

>  <TPSA>  (122) 
46.92

>  <LogP>  (122) 
3.2474200000000017

>  <RBs>  (122) 
5

>  <G_bound>  (122) 
-2.5462957854832404

>  <G_unbound>  (122) 
0.8352488369255319

>  <deltaG>  (122) 
-3.3815446224087724

>  <comRMSD>  (122) 
0.4296003759602116

>  <UFFGibbs>  (122) 
1935.8443940577024

>  <strain_per_HA>  (122) 
96.79221970288512

>  <substructure_overlap_check>  (122) 
True

>  <energy_ratio_check>  (122) 
True

>  <const_energy/unconst_energy>  (122) 
0.9926838923983055

>  <sucos>  (122) 
0.548925266682769

>  <interactions>  (122) 
HBDonor_SER-125,Hydrophobic_TYR-90,Hydrophobic_HIS-21,Hydrophobic_PRO-107,Hydrophobic_CYS-110,Hydrophobic_VAL-124,Hydrophobic_ASP-109

>  <total_num_ints>  (122) 
7

>  <total_num_ints_nonhyd>  (122) 
1

>  <num_uniq_frag_ints>  (122) 
1

>  <num_repl_uniq_ints>  (122) 
1

>  <num_uniq_ints_lost>  (122) 
0

>  <num_new_uniq_ints>  (122) 
6

>  <int_check>  (122) 
True

>  <ref_url>  (122) 
https://pubs.acs.org/doi/10.1021/acs.jcim.3c00276?fig=tgr1&ref=pdf

>  <submitter_name>  (122) 
Steph Wills

>  <submitter_institution>  (122) 
University of Oxford

>  <submitter_email>  (122) 
stephanie.wills@balliol.ox.ac.uk

>  <generation_date>  (122) 
2023-11-23

>  <method>  (122) 
FragNetv2

>  <original SMILES>  (122) 
Cc1cnn(C(C)C)c1NC(=O)C(C)C(F)(F)C(F)F

>  <original_name>  (122) 
x0556_0A-x0310_0A_6135_B1X

>  <ref_mols>  (122) 
x0556_0A,x0310_0A

>  <ref_pdb>  (122) 
x0310_0A

>  <rationale>  (122) 
FragNet: 1 round bioisosteric merging incl c1cn[nH]c1 and CC(C(=O)N[Xe])C(F)(F)C(F)F replacing N#CCC(=O)N[Xe]

$$$$
x0556_0A-x0310_0A_33618_B1X
     RDKit          3D

 16 16  0  0  0  0  0  0  0  0999 V2000
    7.0040   14.2860   23.2950 C   0  0  0  0  0  0  0  0  0  0  0  0
    7.4680   13.7520   24.9660 S   0  0  0  0  0  0  0  0  0  0  0  0
    8.0910   12.0960   24.5290 C   0  0  0  0  0  0  0  0  0  0  0  0
    7.5260   10.8470   25.1240 C   0  0  0  0  0  0  0  0  0  0  0  0
    8.2270    9.7190   24.5650 N   0  0  0  0  0  0  0  0  0  0  0  0
    9.1950   10.1160   23.6600 N   0  0  0  0  0  0  0  0  0  0  0  0
    9.9990    9.2390   22.9630 C   0  0  0  0  0  0  0  0  0  0  0  0
    9.2100   11.5050   23.5710 C   0  0  0  0  0  0  0  0  0  0  0  0
   10.0670   12.2220   22.7690 N   0  0  0  0  0  0  0  0  0  0  0  0
   10.8140   13.1910   23.2330 C   0  0  0  0  0  0  0  0  0  0  0  0
   11.0410   13.4440   24.4120 O   0  0  0  0  0  0  0  0  0  0  0  0
   11.4030   14.0460   22.1000 C   0  0  0  0  0  0  0  0  0  0  0  0
   12.7720   13.6310   21.6090 C   0  0  0  0  0  0  0  0  0  0  0  0
   10.4090   14.3540   20.9650 C   0  0  0  0  0  0  0  0  0  0  0  0
   11.7310   15.2780   22.6820 C   0  0  0  0  0  0  0  0  0  0  0  0
   12.0220   16.5550   23.1200 N   0  0  0  0  0  0  0  0  0  0  0  0
  1  2  1  0
  2  3  1  0
  3  4  1  0
  4  5  2  0
  5  6  1  0
  6  7  1  0
  6  8  1  0
  8  9  1  0
  9 10  1  0
 10 11  2  0
 10 12  1  0
 12 13  1  0
 12 14  1  0
 12 15  1  0
 15 16  3  0
  8  3  2  0
A    1
 C1 
A    2
 S1 
A    3
 C2 
A    4
 C3 
A    5
 N1 
A    6
 N2 
A    7
 C4 
A    8
 C5 
A    9
 N3 
A   10
 C6 
A   11
 O1 
A   12
 C7 
A   13
 C8 
A   14
 C9 
A   15
 C10
A   16
 N4 
M  END
>  <similarity>  (123) 
1.0

>  <smiles>  (123) 
CSc1cnn(C)c1NC(=O)C(C)(C)C#N

>  <cmpd_id>  (123) 
ENAMINE:Z4220835389

>  <used_subnode>  (123) 
c1cn[nH]c1

>  <used_synthon>  (123) 
CC(C)(C#N)C(=O)N[Xe]

>  <ref_subnode>  (123) 
c1cn[nH]c1

>  <ref_synthon>  (123) 
N#CCC(=O)N[Xe]

>  <fragmentA>  (123) 
x0556_0A

>  <fragmentB>  (123) 
x0310_0A

>  <HA>  (123) 
16

>  <HBD>  (123) 
1

>  <HBA>  (123) 
5

>  <MW>  (123) 
238.088832068

>  <TPSA>  (123) 
70.71000000000001

>  <LogP>  (123) 
1.63028

>  <RBs>  (123) 
3

>  <G_bound>  (123) 
-9.475980106965086

>  <G_unbound>  (123) 
0.34792044825945134

>  <deltaG>  (123) 
-9.823900555224537

>  <comRMSD>  (123) 
0.4400189492683514

>  <UFFGibbs>  (123) 
146.88028959653192

>  <strain_per_HA>  (123) 
9.180018099783245

>  <substructure_overlap_check>  (123) 
True

>  <energy_ratio_check>  (123) 
True

>  <const_energy/unconst_energy>  (123) 
0.987394991968039

>  <sucos>  (123) 
0.5497790920127033

>  <interactions>  (123) 
Hydrophobic_VAL-84,HBDonor_SER-125,Hydrophobic_HIS-21,Hydrophobic_PRO-107,Hydrophobic_THR-126

>  <total_num_ints>  (123) 
5

>  <total_num_ints_nonhyd>  (123) 
1

>  <num_uniq_frag_ints>  (123) 
1

>  <num_repl_uniq_ints>  (123) 
1

>  <num_uniq_ints_lost>  (123) 
0

>  <num_new_uniq_ints>  (123) 
4

>  <int_check>  (123) 
True

>  <ref_url>  (123) 
https://pubs.acs.org/doi/10.1021/acs.jcim.3c00276?fig=tgr1&ref=pdf

>  <submitter_name>  (123) 
Steph Wills

>  <submitter_institution>  (123) 
University of Oxford

>  <submitter_email>  (123) 
stephanie.wills@balliol.ox.ac.uk

>  <generation_date>  (123) 
2023-11-23

>  <method>  (123) 
FragNetv2

>  <original SMILES>  (123) 
CSc1cnn(C)c1NC(=O)C(C)(C)C#N

>  <original_name>  (123) 
x0556_0A-x0310_0A_33618_B1X

>  <ref_mols>  (123) 
x0556_0A,x0310_0A

>  <ref_pdb>  (123) 
x0310_0A

>  <rationale>  (123) 
FragNet: 1 round bioisosteric merging incl c1cn[nH]c1 and CC(C)(C#N)C(=O)N[Xe] replacing N#CCC(=O)N[Xe]

$$$$
x0556_0A-x0310_0A_28532_B1X
     RDKit          3D

 21 21  0  0  0  0  0  0  0  0999 V2000
    5.3940   12.8120   25.7780 C   0  0  0  0  0  0  0  0  0  0  0  0
    6.4110   11.8700   26.3870 C   0  0  0  0  0  0  0  0  0  0  0  0
    6.8630   12.5580   27.6470 C   0  0  0  0  0  0  0  0  0  0  0  0
    5.7970   10.5160   26.7250 C   0  0  0  0  0  0  0  0  0  0  0  0
    7.5600   11.6570   25.3850 C   0  0  0  0  0  0  0  0  0  0  0  0
    8.2710   12.7740   24.6860 C   0  0  0  0  0  0  0  0  0  0  0  0
    9.2850   12.1370   23.8260 C   0  0  0  0  0  0  0  0  0  0  0  0
   10.2180   12.6500   22.9750 N   0  0  0  0  0  0  0  0  0  0  0  0
   11.2070   13.3340   23.5930 C   0  0  0  0  0  0  0  0  0  0  0  0
   11.1210   13.7170   24.7470 O   0  0  0  0  0  0  0  0  0  0  0  0
   12.4260   13.6130   22.7590 C   0  0  0  0  0  0  0  0  0  0  0  0
   12.7150   14.9580   22.9260 C   0  0  0  0  0  0  0  0  0  0  0  0
   12.1910   15.9370   22.0930 C   0  0  0  0  0  0  0  0  0  0  0  0
   11.0460   15.3280   21.2990 C   0  0  0  0  0  0  0  0  0  0  0  0
   10.1630   14.9070   20.6710 N   0  0  0  0  0  0  0  0  0  0  0  0
    9.1400   10.8220   24.0300 N   0  0  0  0  0  0  0  0  0  0  0  0
    9.6640    9.6640   23.5920 C   0  0  0  0  0  0  0  0  0  0  0  0
    9.9360    9.7590   22.2010 C   0  0  0  0  0  0  0  0  0  0  0  0
   10.9730    8.9680   23.4940 C   0  0  0  0  0  0  0  0  0  0  0  0
    8.6480    8.7730   23.8010 C   0  0  0  0  0  0  0  0  0  0  0  0
    8.1300   10.4930   24.9500 N   0  0  0  0  0  0  0  0  0  0  0  0
  1  2  1  0
  2  3  1  0
  2  4  1  0
  2  5  1  0
  5  6  1  0
  6  7  2  0
  7  8  1  0
  8  9  1  0
  9 10  2  0
  9 11  1  0
 11 12  1  0
 12 13  1  0
 13 14  1  0
 14 15  3  0
  7 16  1  0
 16 17  1  0
 17 18  1  0
 17 19  1  0
 17 20  1  0
 16 21  1  0
 21  5  2  0
A    1
 C1 
A    2
 C2 
A    3
 C3 
A    4
 C4 
A    5
 C5 
A    6
 C6 
A    7
 C7 
A    8
 N1 
A    9
 C8 
A   10
 O1 
A   11
 C9 
A   12
 C10
A   13
 C11
A   14
 C12
A   15
 N2 
A   16
 N3 
A   17
 C13
A   18
 C14
A   19
 C15
A   20
 C16
A   21
 N4 
M  END
>  <similarity>  (124) 
1.0

>  <smiles>  (124) 
CC(C)(C)c1cc(NC(=O)CCCC#N)n(C(C)(C)C)n1

>  <cmpd_id>  (124) 
ENAMINE:Z2186130255

>  <used_subnode>  (124) 
c1cn[nH]c1

>  <used_synthon>  (124) 
N#CCCCC(=O)N[Xe]

>  <ref_subnode>  (124) 
c1cn[nH]c1

>  <ref_synthon>  (124) 
N#CCC(=O)N[Xe]

>  <fragmentA>  (124) 
x0556_0A

>  <fragmentB>  (124) 
x0310_0A

>  <HA>  (124) 
21

>  <HBD>  (124) 
1

>  <HBA>  (124) 
4

>  <MW>  (124) 
290.210661452

>  <TPSA>  (124) 
70.71000000000001

>  <LogP>  (124) 
3.567980000000002

>  <RBs>  (124) 
4

>  <G_bound>  (124) 
-6.554363059477

>  <G_unbound>  (124) 
-0.3472106583944748

>  <deltaG>  (124) 
-6.207152401082525

>  <comRMSD>  (124) 
0.7498558978721774

>  <UFFGibbs>  (124) 
1353758.685970948

>  <strain_per_HA>  (124) 
64464.69933194991

>  <substructure_overlap_check>  (124) 
True

>  <energy_ratio_check>  (124) 
True

>  <const_energy/unconst_energy>  (124) 
1.0347544256610146

>  <sucos>  (124) 
0.5506832116560814

>  <interactions>  (124) 
HBDonor_SER-125,Hydrophobic_TYR-90,Hydrophobic_HIS-21,Hydrophobic_PRO-107,Hydrophobic_CYS-110,Hydrophobic_VAL-124,Hydrophobic_TYR-89,Hydrophobic_ASP-109

>  <total_num_ints>  (124) 
8

>  <total_num_ints_nonhyd>  (124) 
1

>  <num_uniq_frag_ints>  (124) 
1

>  <num_repl_uniq_ints>  (124) 
1

>  <num_uniq_ints_lost>  (124) 
0

>  <num_new_uniq_ints>  (124) 
7

>  <int_check>  (124) 
True

>  <ref_url>  (124) 
https://pubs.acs.org/doi/10.1021/acs.jcim.3c00276?fig=tgr1&ref=pdf

>  <submitter_name>  (124) 
Steph Wills

>  <submitter_institution>  (124) 
University of Oxford

>  <submitter_email>  (124) 
stephanie.wills@balliol.ox.ac.uk

>  <generation_date>  (124) 
2023-11-23

>  <method>  (124) 
FragNetv2

>  <original SMILES>  (124) 
CC(C)(C)c1cc(NC(=O)CCCC#N)n(C(C)(C)C)n1

>  <original_name>  (124) 
x0556_0A-x0310_0A_28532_B1X

>  <ref_mols>  (124) 
x0556_0A,x0310_0A

>  <ref_pdb>  (124) 
x0310_0A

>  <rationale>  (124) 
FragNet: 1 round bioisosteric merging incl c1cn[nH]c1 and N#CCCCC(=O)N[Xe] replacing N#CCC(=O)N[Xe]

$$$$
x0556_0A-x0310_0A_373_PXX
     RDKit          3D

 14 14  0  0  0  0  0  0  0  0999 V2000
    5.6890   10.2200   26.7200 C   0  0  0  0  0  0  0  0  0  0  0  0
    6.2560   11.4610   26.2300 C   0  0  0  0  0  0  0  0  0  0  0  0
    7.3940   11.2350   25.2610 C   0  0  0  0  0  0  0  0  0  0  0  0
    7.8460   10.0050   24.9540 N   0  0  0  0  0  0  0  0  0  0  0  0
    8.8500   10.2250   24.0820 N   0  0  0  0  0  0  0  0  0  0  0  0
    9.0490   11.6420   23.8210 C   0  0  0  0  0  0  0  0  0  0  0  0
    9.9930   12.2290   22.9980 N   0  0  0  0  0  0  0  0  0  0  0  0
   10.8480   13.1440   23.5740 C   0  0  0  0  0  0  0  0  0  0  0  0
   10.7490   13.5220   24.7340 O   0  0  0  0  0  0  0  0  0  0  0  0
   11.9460   13.7230   22.7090 C   0  0  0  0  0  0  0  0  0  0  0  0
   12.0950   15.1730   22.4770 C   0  0  0  0  0  0  0  0  0  0  0  0
   12.1250   16.3100   22.3290 N   0  0  0  0  0  0  0  0  0  0  0  0
    8.0980   12.2680   24.5870 C   0  0  0  0  0  0  0  0  0  0  0  0
    7.8270   13.7600   24.7210 C   0  0  0  0  0  0  0  0  0  0  0  0
  1  2  1  0
  2  3  1  0
  3  4  2  0
  4  5  1  0
  5  6  1  0
  6  7  1  0
  7  8  1  0
  8  9  2  0
  8 10  1  0
 10 11  1  0
 11 12  3  0
  6 13  2  0
 13 14  1  0
 13  3  1  0
A    1
 C1 
A    2
 C2 
A    3
 C3 
A    4
 N1 
A    5
 N2 
A    6
 C4 
A    7
 N3 
A    8
 C5 
A    9
 O1 
A   10
 C6 
A   11
 C7 
A   12
 N4 
A   13
 C8 
A   14
 C9 
M  END
>  <similarity>  (125) 
NA

>  <smiles>  (125) 
CCc1n[nH]c(NC(=O)CC#N)c1C

>  <cmpd_id>  (125) 
ENAMINE:Z2500117564

>  <used_subnode>  (125) 
NA

>  <used_synthon>  (125) 
NA

>  <ref_subnode>  (125) 
c1cn[nH]c1

>  <ref_synthon>  (125) 
N#CCC(=O)N[Xe]

>  <fragmentA>  (125) 
x0556_0A

>  <fragmentB>  (125) 
x0310_0A

>  <HA>  (125) 
14

>  <HBD>  (125) 
2

>  <HBA>  (125) 
3

>  <MW>  (125) 
192.101111004

>  <TPSA>  (125) 
81.57

>  <LogP>  (125) 
1.1327

>  <RBs>  (125) 
3

>  <G_bound>  (125) 
-6.481277140868097

>  <G_unbound>  (125) 
0.3192525395153194

>  <deltaG>  (125) 
-6.800529680383416

>  <comRMSD>  (125) 
0.38103840938464945

>  <substructure_overlap_check>  (125) 
True

>  <energy_ratio_check>  (125) 
True

>  <const_energy/unconst_energy>  (125) 
1.8403370354316164

>  <sucos>  (125) 
0.5522477511372098

>  <interactions>  (125) 
Hydrophobic_HIS-21,Hydrophobic_PRO-107,HBDonor_SER-125

>  <total_num_ints>  (125) 
3

>  <total_num_ints_nonhyd>  (125) 
1

>  <num_uniq_frag_ints>  (125) 
1

>  <num_repl_uniq_ints>  (125) 
1

>  <num_uniq_ints_lost>  (125) 
0

>  <num_new_uniq_ints>  (125) 
2

>  <int_check>  (125) 
True

>  <ref_url>  (125) 
https://pubs.acs.org/doi/10.1021/acs.jcim.3c00276?fig=tgr1&ref=pdf

>  <submitter_name>  (125) 
Steph Wills

>  <submitter_institution>  (125) 
University of Oxford

>  <submitter_email>  (125) 
stephanie.wills@balliol.ox.ac.uk

>  <generation_date>  (125) 
2023-11-23

>  <method>  (125) 
FragNetv2

>  <original SMILES>  (125) 
CCc1n[nH]c(NC(=O)CC#N)c1C

>  <original_name>  (125) 
x0556_0A-x0310_0A_373_PXX

>  <ref_mols>  (125) 
x0556_0A,x0310_0A

>  <ref_pdb>  (125) 
x0310_0A

>  <rationale>  (125) 
FragNet: perfect merge incl c1cn[nH]c1,N#CCC(=O)N[Xe]

$$$$
x0556_0A-x0310_0A_23091_B1X
     RDKit          3D

 20 20  0  0  0  0  0  0  0  0999 V2000
    4.7620   10.6640   29.4480 C   0  0  0  0  0  0  0  0  0  0  0  0
    4.6850   10.3640   27.9500 C   0  0  0  0  0  0  0  0  0  0  0  0
    4.2000    8.9290   27.6190 C   0  0  0  0  0  0  0  0  0  0  0  0
    6.0380   10.4990   27.3730 C   0  0  0  0  0  0  0  0  0  0  0  0
    6.2890   11.5710   26.3060 C   0  0  0  0  0  0  0  0  0  0  0  0
    7.4000   11.2180   25.2950 C   0  0  0  0  0  0  0  0  0  0  0  0
    8.1710   12.3170   24.5920 C   0  0  0  0  0  0  0  0  0  0  0  0
    9.0530   11.6920   23.7830 C   0  0  0  0  0  0  0  0  0  0  0  0
    9.8800   12.5070   23.0330 N   0  0  0  0  0  0  0  0  0  0  0  0
   10.8530   13.3500   23.7220 C   0  0  0  0  0  0  0  0  0  0  0  0
   10.6750   13.9630   24.7650 O   0  0  0  0  0  0  0  0  0  0  0  0
   12.0460   13.3750   23.0440 C   0  0  0  0  0  0  0  0  0  0  0  0
   12.6310   14.5810   22.5320 C   0  0  2  0  0  0  0  0  0  0  0  0
   11.9520   15.7660   22.5930 C   0  0  0  0  0  0  0  0  0  0  0  0
   12.8230   14.6200   21.1740 C   0  0  0  0  0  0  0  0  0  0  0  0
   11.6370   14.9900   20.6360 F   0  0  0  0  0  0  0  0  0  0  0  0
   13.6330   15.6750   20.9820 F   0  0  0  0  0  0  0  0  0  0  0  0
    8.9750   10.3520   23.8450 N   0  0  0  0  0  0  0  0  0  0  0  0
    9.7460    9.3690   23.1150 C   0  0  0  0  0  0  0  0  0  0  0  0
    7.9750   10.0290   24.7670 N   0  0  0  0  0  0  0  0  0  0  0  0
  1  2  1  0
  2  3  1  0
  2  4  1  0
  4  5  1  0
  5  6  1  0
  6  7  1  0
  7  8  2  0
  8  9  1  0
  9 10  1  0
 10 11  2  0
 10 12  1  0
 12 13  1  0
 13 14  1  6
 13 15  1  0
 15 16  1  0
 15 17  1  0
  8 18  1  0
 18 19  1  0
 18 20  1  0
 20  6  2  0
A    1
 C1 
A    2
 C2 
A    3
 C3 
A    4
 C4 
A    5
 C5 
A    6
 C6 
A    7
 C7 
A    8
 C8 
A    9
 N1 
A   10
 C9 
A   11
 O1 
A   12
 C10
A   13
 C11
A   14
 C12
A   15
 C13
A   16
 F1 
A   17
 F2 
A   18
 N2 
A   19
 C14
A   20
 N3 
M  END
>  <similarity>  (126) 
1.0

>  <smiles>  (126) 
CC(C)CCc1cc(NC(=O)CC(C)C(F)F)n(C)n1

>  <cmpd_id>  (126) 
ENAMINE:Z3353193372

>  <used_subnode>  (126) 
c1cn[nH]c1

>  <used_synthon>  (126) 
CC(CC(=O)N[Xe])C(F)F

>  <ref_subnode>  (126) 
c1cn[nH]c1

>  <ref_synthon>  (126) 
N#CCC(=O)N[Xe]

>  <fragmentA>  (126) 
x0556_0A

>  <fragmentB>  (126) 
x0310_0A

>  <HA>  (126) 
20

>  <HBD>  (126) 
1

>  <HBA>  (126) 
3

>  <MW>  (126) 
287.180918796

>  <TPSA>  (126) 
46.92

>  <LogP>  (126) 
3.238500000000002

>  <RBs>  (126) 
7

>  <G_bound>  (126) 
-8.591692928216935

>  <G_unbound>  (126) 
0.4424295326718251

>  <deltaG>  (126) 
-9.03412246088876

>  <comRMSD>  (126) 
0.5566974419797002

>  <UFFGibbs>  (126) 
264.8636948868848

>  <strain_per_HA>  (126) 
13.243184744344239

>  <substructure_overlap_check>  (126) 
True

>  <energy_ratio_check>  (126) 
True

>  <const_energy/unconst_energy>  (126) 
0.9582787160632911

>  <sucos>  (126) 
0.5529929267517613

>  <interactions>  (126) 
HBDonor_SER-125,Hydrophobic_TYR-90,Hydrophobic_HIS-21,Hydrophobic_PRO-107,Hydrophobic_TYR-89

>  <total_num_ints>  (126) 
5

>  <total_num_ints_nonhyd>  (126) 
1

>  <num_uniq_frag_ints>  (126) 
1

>  <num_repl_uniq_ints>  (126) 
1

>  <num_uniq_ints_lost>  (126) 
0

>  <num_new_uniq_ints>  (126) 
4

>  <int_check>  (126) 
True

>  <ref_url>  (126) 
https://pubs.acs.org/doi/10.1021/acs.jcim.3c00276?fig=tgr1&ref=pdf

>  <submitter_name>  (126) 
Steph Wills

>  <submitter_institution>  (126) 
University of Oxford

>  <submitter_email>  (126) 
stephanie.wills@balliol.ox.ac.uk

>  <generation_date>  (126) 
2023-11-23

>  <method>  (126) 
FragNetv2

>  <original SMILES>  (126) 
CC(C)CCc1cc(NC(=O)CC(C)C(F)F)n(C)n1

>  <original_name>  (126) 
x0556_0A-x0310_0A_23091_B1X

>  <ref_mols>  (126) 
x0556_0A,x0310_0A

>  <ref_pdb>  (126) 
x0310_0A

>  <rationale>  (126) 
FragNet: 1 round bioisosteric merging incl c1cn[nH]c1 and CC(CC(=O)N[Xe])C(F)F replacing N#CCC(=O)N[Xe]

$$$$
x0310_0A-x0556_0A_114-4_B2S
     RDKit          3D

 12 12  0  0  0  0  0  0  0  0999 V2000
   12.3570   15.3560   22.9120 C   0  0  0  0  0  0  0  0  0  0  0  0
   11.6310   14.1450   22.3520 C   0  0  0  0  0  0  0  0  0  0  0  0
   10.7360   14.5830   21.4140 F   0  0  0  0  0  0  0  0  0  0  0  0
   12.5420   13.4020   21.6740 F   0  0  0  0  0  0  0  0  0  0  0  0
   10.9030   13.3220   23.4350 C   0  0  0  0  0  0  0  0  0  0  0  0
   11.0050   13.5690   24.6300 O   0  0  0  0  0  0  0  0  0  0  0  0
   10.1170   12.2950   22.9230 N   0  0  0  0  0  0  0  0  0  0  0  0
    9.2070   11.5790   23.7040 C   0  0  0  0  0  0  0  0  0  0  0  0
    9.0610   10.1680   23.8760 C   0  0  0  0  0  0  0  0  0  0  0  0
    8.1010    9.7650   24.6970 N   0  0  0  0  0  0  0  0  0  0  0  0
    7.3180   11.0770   25.3160 S   0  0  0  0  0  0  0  0  0  0  0  0
    8.2590   12.2250   24.4760 C   0  0  0  0  0  0  0  0  0  0  0  0
  1  2  1  0
  2  3  1  0
  2  4  1  0
  2  5  1  0
  5  6  2  0
  5  7  1  0
  7  8  1  0
  8  9  1  0
  9 10  2  0
 10 11  1  0
 11 12  1  0
 12  8  2  0
A    1
 C1 
A    2
 C2 
A    3
 F1 
A    4
 F2 
A    5
 C3 
A    6
 O1 
A    7
 N1 
A    8
 C4 
A    9
 C5 
A   10
 N2 
A   11
 S1 
A   12
 C6 
M  END
>  <similarity>  (127) 
1.0

>  <smiles>  (127) 
CC(F)(F)C(=O)Nc1cnsc1

>  <cmpd_id>  (127) 
ENAMINE:Z2913603027,CHEMSPACE-BB:CSMB00113875630

>  <used_subnode>  (127) 
N#CCC(=O)N[Xe]

>  <used_synthon>  (127) 
[Xe]c1cnsc1

>  <ref_subnode>  (127) 
N#CCC(=O)N[Xe]

>  <ref_synthon>  (127) 
[Xe]n1cccn1

>  <fragmentA>  (127) 
x0310_0A

>  <fragmentB>  (127) 
x0556_0A

>  <rev_synthon>  (127) 
CC(F)(F)C(=O)N[Xe]

>  <intermed_node1>  (127) 
c1cnsc1

>  <HA>  (127) 
12

>  <HBD>  (127) 
1

>  <HBA>  (127) 
3

>  <MW>  (127) 
192.016890252

>  <TPSA>  (127) 
41.99

>  <LogP>  (127) 
1.7368000000000001

>  <RBs>  (127) 
2

>  <G_bound>  (127) 
-5.403507806333193

>  <G_unbound>  (127) 
0.3287666731708733

>  <deltaG>  (127) 
-5.732274479504067

>  <comRMSD>  (127) 
0.4388099820693658

>  <substructure_overlap_check>  (127) 
True

>  <energy_ratio_check>  (127) 
True

>  <const_energy/unconst_energy>  (127) 
1.5279028181798664

>  <sucos>  (127) 
0.5535221797544188

>  <interactions>  (127) 
Hydrophobic_HIS-21,HBDonor_SER-125,Hydrophobic_TYR-89,Hydrophobic_PRO-107

>  <total_num_ints>  (127) 
4

>  <total_num_ints_nonhyd>  (127) 
1

>  <num_uniq_frag_ints>  (127) 
1

>  <num_repl_uniq_ints>  (127) 
1

>  <num_uniq_ints_lost>  (127) 
0

>  <num_new_uniq_ints>  (127) 
3

>  <int_check>  (127) 
True

>  <ref_url>  (127) 
https://pubs.acs.org/doi/10.1021/acs.jcim.3c00276?fig=tgr1&ref=pdf

>  <submitter_name>  (127) 
Steph Wills

>  <submitter_institution>  (127) 
University of Oxford

>  <submitter_email>  (127) 
stephanie.wills@balliol.ox.ac.uk

>  <generation_date>  (127) 
2023-11-23

>  <method>  (127) 
FragNetv2

>  <original SMILES>  (127) 
CC(F)(F)C(=O)Nc1cnsc1

>  <original_name>  (127) 
x0310_0A-x0556_0A_114-4_B2S

>  <ref_mols>  (127) 
x0310_0A,x0556_0A

>  <ref_pdb>  (127) 
x0310_0A

>  <rationale>  (127) 
FragNet: 2 rounds bioisosteric merging (no change in linker) incl CC(F)(F)C(=O)N[Xe] replacing N#CCC(=O)N[Xe] and [Xe]c1cnsc1 replacing [Xe]n1cccn1

$$$$
x0556_0A-x0310_0A_15923_B1X
     RDKit          3D

 18 18  0  0  0  0  0  0  0  0999 V2000
    5.7210   15.3510   24.0510 C   0  0  0  0  0  0  0  0  0  0  0  0
    6.0690   14.0150   24.0980 N   0  0  0  0  0  0  0  0  0  0  0  0
    7.0000   13.5390   25.0450 C   0  0  0  0  0  0  0  0  0  0  0  0
    7.3510   14.1290   26.0710 O   0  0  0  0  0  0  0  0  0  0  0  0
    7.6510   12.1560   24.7860 C   0  0  0  0  0  0  0  0  0  0  0  0
    7.2300   10.8340   25.3530 C   0  0  0  0  0  0  0  0  0  0  0  0
    6.0340   10.7130   26.3150 C   0  0  0  0  0  0  0  0  0  0  0  0
    8.0450    9.9050   24.8730 N   0  0  0  0  0  0  0  0  0  0  0  0
    8.9670   10.5030   24.0480 N   0  0  0  0  0  0  0  0  0  0  0  0
    8.8510   11.8800   23.9010 C   0  0  0  0  0  0  0  0  0  0  0  0
    9.6390   12.7250   23.1460 N   0  0  0  0  0  0  0  0  0  0  0  0
   10.5360   13.5580   23.7720 C   0  0  0  0  0  0  0  0  0  0  0  0
   10.4440   13.9550   24.9250 O   0  0  0  0  0  0  0  0  0  0  0  0
   11.6930   13.9580   22.8920 C   0  0  0  0  0  0  0  0  0  0  0  0
   13.0880   14.0870   23.4440 C   0  0  0  0  0  0  0  0  0  0  0  0
   11.5390   14.2760   21.4170 C   0  0  0  0  0  0  0  0  0  0  0  0
   10.5030   14.4050   20.2850 C   0  0  0  0  0  0  0  0  0  0  0  0
   12.4300   14.6370   20.2930 C   0  0  0  0  0  0  0  0  0  0  0  0
  1  2  1  0
  2  3  1  0
  3  4  2  0
  3  5  1  0
  5  6  1  0
  6  7  1  0
  6  8  2  0
  8  9  1  0
  9 10  1  0
 10 11  1  0
 11 12  1  0
 12 13  2  0
 12 14  1  0
 14 15  1  0
 14 16  2  3
 16 17  1  0
 16 18  1  0
 10  5  2  0
A    1
 C1 
A    2
 N1 
A    3
 C2 
A    4
 O1 
A    5
 C3 
A    6
 C4 
A    7
 C5 
A    8
 N2 
A    9
 N3 
A   10
 C6 
A   11
 N4 
A   12
 C7 
A   13
 O2 
A   14
 C8 
A   15
 C9 
A   16
 C10
A   17
 C11
A   18
 C12
M  END
>  <similarity>  (128) 
1.0

>  <smiles>  (128) 
CNC(=O)c1c(C)n[nH]c1NC(=O)C(C)=C(C)C

>  <cmpd_id>  (128) 
ENAMINE:Z2780854447

>  <used_subnode>  (128) 
c1cn[nH]c1

>  <used_synthon>  (128) 
CC(C)=C(C)C(=O)N[Xe]

>  <ref_subnode>  (128) 
c1cn[nH]c1

>  <ref_synthon>  (128) 
N#CCC(=O)N[Xe]

>  <fragmentA>  (128) 
x0556_0A

>  <fragmentB>  (128) 
x0310_0A

>  <HA>  (128) 
18

>  <HBD>  (128) 
3

>  <HBA>  (128) 
3

>  <MW>  (128) 
250.142975816

>  <TPSA>  (128) 
86.88

>  <LogP>  (128) 
1.3725199999999995

>  <RBs>  (128) 
3

>  <G_bound>  (128) 
-10.595646483342005

>  <G_unbound>  (128) 
0.19005936483933647

>  <deltaG>  (128) 
-10.785705848181342

>  <comRMSD>  (128) 
0.9676349646566377

>  <UFFGibbs>  (128) 
810.6148602770763

>  <strain_per_HA>  (128) 
45.034158904282016

>  <substructure_overlap_check>  (128) 
True

>  <energy_ratio_check>  (128) 
True

>  <const_energy/unconst_energy>  (128) 
1.0091412398127257

>  <sucos>  (128) 
0.5539773139089045

>  <interactions>  (128) 
Hydrophobic_TYR-90,HBDonor_GLY-127,Hydrophobic_HIS-21,Hydrophobic_PRO-107,Hydrophobic_TYR-89,Hydrophobic_THR-126

>  <total_num_ints>  (128) 
6

>  <total_num_ints_nonhyd>  (128) 
1

>  <num_uniq_frag_ints>  (128) 
1

>  <num_repl_uniq_ints>  (128) 
1

>  <num_uniq_ints_lost>  (128) 
0

>  <num_new_uniq_ints>  (128) 
5

>  <int_check>  (128) 
True

>  <ref_url>  (128) 
https://pubs.acs.org/doi/10.1021/acs.jcim.3c00276?fig=tgr1&ref=pdf

>  <submitter_name>  (128) 
Steph Wills

>  <submitter_institution>  (128) 
University of Oxford

>  <submitter_email>  (128) 
stephanie.wills@balliol.ox.ac.uk

>  <generation_date>  (128) 
2023-11-23

>  <method>  (128) 
FragNetv2

>  <original SMILES>  (128) 
CNC(=O)c1c(C)n[nH]c1NC(=O)C(C)=C(C)C

>  <original_name>  (128) 
x0556_0A-x0310_0A_15923_B1X

>  <ref_mols>  (128) 
x0556_0A,x0310_0A

>  <ref_pdb>  (128) 
x0310_0A

>  <rationale>  (128) 
FragNet: 1 round bioisosteric merging incl c1cn[nH]c1 and CC(C)=C(C)C(=O)N[Xe] replacing N#CCC(=O)N[Xe]

$$$$
x0556_0A-x0310_0A_45816_B1X
     RDKit          3D

 22 23  0  0  0  0  0  0  0  0999 V2000
   11.2820   14.9260   25.2310 C   0  0  0  0  0  0  0  0  0  0  0  0
   12.7790   14.6870   25.0950 C   0  0  0  0  0  0  0  0  0  0  0  0
   13.4960   14.4430   23.7670 C   0  0  0  0  0  0  0  0  0  0  0  0
   12.7540   14.4190   22.4370 C   0  0  0  0  0  0  0  0  0  0  0  0
   11.4770   13.5610   22.2980 C   0  0  0  0  0  0  0  0  0  0  0  0
   10.9990   12.8550   23.4840 C   0  0  0  0  0  0  0  0  0  0  0  0
   11.3710   13.0460   24.6120 O   0  0  0  0  0  0  0  0  0  0  0  0
   10.0400   11.9740   23.0500 N   0  0  0  0  0  0  0  0  0  0  0  0
    9.0750   11.4230   23.8740 C   0  0  0  0  0  0  0  0  0  0  0  0
    8.8530   10.0960   24.1000 N   0  0  0  0  0  0  0  0  0  0  0  0
    7.8500    9.8700   24.9620 N   0  0  0  0  0  0  0  0  0  0  0  0
    7.4220   11.0900   25.2920 C   0  0  0  0  0  0  0  0  0  0  0  0
    6.2620   11.1630   26.2910 C   0  0  0  0  0  0  0  0  0  0  0  0
    5.6790   12.5250   25.9580 C   0  0  0  0  0  0  0  0  0  0  0  0
    4.4930   12.8410   26.8290 C   0  0  0  0  0  0  0  0  0  0  0  0
    4.0460   11.9660   27.7830 N   0  0  0  0  0  0  0  0  0  0  0  0
    4.6390   10.7240   28.0300 C   0  0  0  0  0  0  0  0  0  0  0  0
    5.7530   10.3000   27.2930 C   0  0  0  0  0  0  0  0  0  0  0  0
    8.1670   12.1180   24.6230 C   0  0  0  0  0  0  0  0  0  0  0  0
    8.0200   13.5740   24.7070 C   0  0  0  0  0  0  0  0  0  0  0  0
   14.8860   14.2350   23.6820 C   0  0  0  0  0  0  0  0  0  0  0  0
   15.3140   13.0210   22.8510 C   0  0  0  0  0  0  0  0  0  0  0  0
  1  2  1  0
  2  3  2  3
  3  4  1  0
  4  5  2  3
  5  6  1  0
  6  7  2  0
  6  8  1  0
  8  9  1  0
  9 10  1  0
 10 11  1  0
 11 12  2  0
 12 13  1  0
 13 14  2  0
 14 15  1  0
 15 16  2  0
 16 17  1  0
 17 18  2  0
 12 19  1  0
 19 20  1  0
  3 21  1  0
 21 22  1  0
 19  9  2  0
 18 13  1  0
A    1
 C1 
A    2
 C2 
A    3
 C3 
A    4
 C4 
A    5
 C5 
A    6
 C6 
A    7
 O1 
A    8
 N1 
A    9
 C7 
A   10
 N2 
A   11
 N3 
A   12
 C8 
A   13
 C9 
A   14
 C10
A   15
 C11
A   16
 N4 
A   17
 C12
A   18
 C13
A   19
 C14
A   20
 C15
A   21
 C16
A   22
 C17
M  END
>  <similarity>  (129) 
1.0

>  <smiles>  (129) 
CC=C(C=CC(=O)Nc1[nH]nc(-c2ccncc2)c1C)CC

>  <cmpd_id>  (129) 
ENAMINE:Z1438943938

>  <used_subnode>  (129) 
c1cn[nH]c1

>  <used_synthon>  (129) 
CC=C(C=CC(=O)N[Xe])CC

>  <ref_subnode>  (129) 
c1cn[nH]c1

>  <ref_synthon>  (129) 
N#CCC(=O)N[Xe]

>  <fragmentA>  (129) 
x0556_0A

>  <fragmentB>  (129) 
x0310_0A

>  <HA>  (129) 
22

>  <HBD>  (129) 
2

>  <HBA>  (129) 
3

>  <MW>  (129) 
296.16371126

>  <TPSA>  (129) 
70.67

>  <LogP>  (129) 
3.631120000000003

>  <RBs>  (129) 
5

>  <G_bound>  (129) 
-7.9177212920995

>  <G_unbound>  (129) 
0.2874924253710221

>  <deltaG>  (129) 
-8.205213717470523

>  <comRMSD>  (129) 
0.8604205748003889

>  <UFFGibbs>  (129) 
411.05864457337947

>  <strain_per_HA>  (129) 
18.68448384424452

>  <substructure_overlap_check>  (129) 
True

>  <energy_ratio_check>  (129) 
True

>  <const_energy/unconst_energy>  (129) 
1.1346973466899908

>  <sucos>  (129) 
0.5544807396625949

>  <interactions>  (129) 
HBDonor_SER-125,Hydrophobic_GLU-88,Hydrophobic_TYR-90,Hydrophobic_HIS-21,Hydrophobic_PRO-107,Hydrophobic_LEU-22,Hydrophobic_CYS-110,Hydrophobic_TYR-89

>  <total_num_ints>  (129) 
8

>  <total_num_ints_nonhyd>  (129) 
1

>  <num_uniq_frag_ints>  (129) 
1

>  <num_repl_uniq_ints>  (129) 
1

>  <num_uniq_ints_lost>  (129) 
0

>  <num_new_uniq_ints>  (129) 
7

>  <int_check>  (129) 
True

>  <ref_url>  (129) 
https://pubs.acs.org/doi/10.1021/acs.jcim.3c00276?fig=tgr1&ref=pdf

>  <submitter_name>  (129) 
Steph Wills

>  <submitter_institution>  (129) 
University of Oxford

>  <submitter_email>  (129) 
stephanie.wills@balliol.ox.ac.uk

>  <generation_date>  (129) 
2023-11-23

>  <method>  (129) 
FragNetv2

>  <original SMILES>  (129) 
CC=C(C=CC(=O)Nc1[nH]nc(-c2ccncc2)c1C)CC

>  <original_name>  (129) 
x0556_0A-x0310_0A_45816_B1X

>  <ref_mols>  (129) 
x0556_0A,x0310_0A

>  <ref_pdb>  (129) 
x0310_0A

>  <rationale>  (129) 
FragNet: 1 round bioisosteric merging incl c1cn[nH]c1 and CC=C(C=CC(=O)N[Xe])CC replacing N#CCC(=O)N[Xe]

$$$$
x0556_0A-x0310_0A_37139_B1X
     RDKit          3D

 16 17  0  0  0  0  0  0  0  0999 V2000
   12.0090   15.4750   23.8000 C   0  0  0  0  0  0  0  0  0  0  0  0
   12.3890   14.7980   22.5270 C   0  0  0  0  0  0  0  0  0  0  0  0
   13.2390   15.4960   21.4930 C   0  0  0  0  0  0  0  0  0  0  0  0
   11.9020   13.4120   22.3170 C   0  0  0  0  0  0  0  0  0  0  0  0
   11.0630   12.8450   23.3400 C   0  0  0  0  0  0  0  0  0  0  0  0
   11.1860   13.2080   24.5040 O   0  0  0  0  0  0  0  0  0  0  0  0
   10.1140   11.9190   22.9840 N   0  0  0  0  0  0  0  0  0  0  0  0
    9.0920   11.4770   23.8230 C   0  0  0  0  0  0  0  0  0  0  0  0
    8.9010   10.1770   24.1940 N   0  0  0  0  0  0  0  0  0  0  0  0
    7.7990   10.1480   25.0380 N   0  0  0  0  0  0  0  0  0  0  0  0
    7.1940   11.4440   25.2690 C   0  0  0  0  0  0  0  0  0  0  0  0
    6.0680   11.6460   26.0890 C   0  0  0  0  0  0  0  0  0  0  0  0
    6.0560   11.9930   27.4310 C   0  0  0  0  0  0  0  0  0  0  0  0
    5.7040   10.4820   27.1200 C   0  0  0  0  0  0  0  0  0  0  0  0
    8.0030   12.2630   24.5050 C   0  0  0  0  0  0  0  0  0  0  0  0
    8.5420   13.5450   23.8620 C   0  0  0  0  0  0  0  0  0  0  0  0
  1  2  1  0
  2  3  1  0
  2  4  2  3
  4  5  1  0
  5  6  2  0
  5  7  1  0
  7  8  1  0
  8  9  1  0
  9 10  1  0
 10 11  2  0
 11 12  1  0
 12 13  1  0
 13 14  1  0
 11 15  1  0
 15 16  1  0
 15  8  2  0
 14 12  1  0
A    1
 C1 
A    2
 C2 
A    3
 C3 
A    4
 C4 
A    5
 C5 
A    6
 O1 
A    7
 N1 
A    8
 C6 
A    9
 N2 
A   10
 N3 
A   11
 C7 
A   12
 C8 
A   13
 C9 
A   14
 C10
A   15
 C11
A   16
 C12
M  END
>  <similarity>  (130) 
1.0

>  <smiles>  (130) 
CC(C)=CC(=O)Nc1[nH]nc(C2CC2)c1C

>  <cmpd_id>  (130) 
ENAMINE:Z1096622385

>  <used_subnode>  (130) 
c1cn[nH]c1

>  <used_synthon>  (130) 
CC(C)=CC(=O)N[Xe]

>  <ref_subnode>  (130) 
c1cn[nH]c1

>  <ref_synthon>  (130) 
N#CCC(=O)N[Xe]

>  <fragmentA>  (130) 
x0556_0A

>  <fragmentB>  (130) 
x0310_0A

>  <HA>  (130) 
16

>  <HBD>  (130) 
2

>  <HBA>  (130) 
2

>  <MW>  (130) 
219.137162164

>  <TPSA>  (130) 
57.78

>  <LogP>  (130) 
2.5002200000000006

>  <RBs>  (130) 
3

>  <G_bound>  (130) 
-7.418549328693799

>  <G_unbound>  (130) 
0.3421691066388015

>  <deltaG>  (130) 
-7.760718435332601

>  <comRMSD>  (130) 
0.5024439996970713

>  <UFFGibbs>  (130) 
257.6395202240766

>  <strain_per_HA>  (130) 
16.102470014004787

>  <substructure_overlap_check>  (130) 
True

>  <energy_ratio_check>  (130) 
True

>  <const_energy/unconst_energy>  (130) 
1.006069124761866

>  <sucos>  (130) 
0.554842342208311

>  <interactions>  (130) 
HBDonor_SER-125,Hydrophobic_TYR-90,Hydrophobic_HIS-21,Hydrophobic_PRO-107,Hydrophobic_TYR-89

>  <total_num_ints>  (130) 
5

>  <total_num_ints_nonhyd>  (130) 
1

>  <num_uniq_frag_ints>  (130) 
1

>  <num_repl_uniq_ints>  (130) 
1

>  <num_uniq_ints_lost>  (130) 
0

>  <num_new_uniq_ints>  (130) 
4

>  <int_check>  (130) 
True

>  <ref_url>  (130) 
https://pubs.acs.org/doi/10.1021/acs.jcim.3c00276?fig=tgr1&ref=pdf

>  <submitter_name>  (130) 
Steph Wills

>  <submitter_institution>  (130) 
University of Oxford

>  <submitter_email>  (130) 
stephanie.wills@balliol.ox.ac.uk

>  <generation_date>  (130) 
2023-11-23

>  <method>  (130) 
FragNetv2

>  <original SMILES>  (130) 
CC(C)=CC(=O)Nc1[nH]nc(C2CC2)c1C

>  <original_name>  (130) 
x0556_0A-x0310_0A_37139_B1X

>  <ref_mols>  (130) 
x0556_0A,x0310_0A

>  <ref_pdb>  (130) 
x0310_0A

>  <rationale>  (130) 
FragNet: 1 round bioisosteric merging incl c1cn[nH]c1 and CC(C)=CC(=O)N[Xe] replacing N#CCC(=O)N[Xe]

$$$$
x0556_0A-x0310_0A_327_PXX
     RDKit          3D

 16 16  0  0  0  0  0  0  0  0999 V2000
    7.0730   13.0870   27.0240 C   0  0  0  0  0  0  0  0  0  0  0  0
    6.1000   12.0080   27.1550 C   0  0  0  0  0  0  0  0  0  0  0  0
    4.7140   12.5430   26.9040 C   0  0  0  0  0  0  0  0  0  0  0  0
    6.1520   11.4750   28.6030 C   0  0  0  0  0  0  0  0  0  0  0  0
    6.3930   10.8080   26.2210 C   0  0  0  0  0  0  0  0  0  0  0  0
    7.5310   10.9240   25.2070 C   0  0  0  0  0  0  0  0  0  0  0  0
    8.1000   12.0850   24.6320 C   0  0  0  0  0  0  0  0  0  0  0  0
    9.1880   11.5450   23.7330 C   0  0  0  0  0  0  0  0  0  0  0  0
   10.0910   12.2300   22.9280 N   0  0  0  0  0  0  0  0  0  0  0  0
   10.8900   13.2020   23.5100 C   0  0  0  0  0  0  0  0  0  0  0  0
   10.6540   13.6930   24.6110 O   0  0  0  0  0  0  0  0  0  0  0  0
   12.0900   13.6410   22.7110 C   0  0  0  0  0  0  0  0  0  0  0  0
   12.1330   15.0080   22.6400 C   0  0  0  0  0  0  0  0  0  0  0  0
   12.1170   16.1600   22.5910 N   0  0  0  0  0  0  0  0  0  0  0  0
    9.0970   10.1910   23.8920 N   0  0  0  0  0  0  0  0  0  0  0  0
    8.1280    9.8090   24.7530 N   0  0  0  0  0  0  0  0  0  0  0  0
  1  2  1  0
  2  3  1  0
  2  4  1  0
  2  5  1  0
  5  6  1  0
  6  7  1  0
  7  8  2  0
  8  9  1  0
  9 10  1  0
 10 11  2  0
 10 12  1  0
 12 13  1  0
 13 14  3  0
  8 15  1  0
 15 16  1  0
 16  6  2  0
A    1
 C1 
A    2
 C2 
A    3
 C3 
A    4
 C4 
A    5
 C5 
A    6
 C6 
A    7
 C7 
A    8
 C8 
A    9
 N1 
A   10
 C9 
A   11
 O1 
A   12
 C10
A   13
 C11
A   14
 N2 
A   15
 N3 
A   16
 N4 
M  END
>  <similarity>  (131) 
NA

>  <smiles>  (131) 
CC(C)(C)Cc1cc(NC(=O)CC#N)[nH]n1

>  <cmpd_id>  (131) 
ENAMINE:Z1726449759

>  <used_subnode>  (131) 
NA

>  <used_synthon>  (131) 
NA

>  <ref_subnode>  (131) 
c1cn[nH]c1

>  <ref_synthon>  (131) 
N#CCC(=O)N[Xe]

>  <fragmentA>  (131) 
x0556_0A

>  <fragmentB>  (131) 
x0310_0A

>  <HA>  (131) 
16

>  <HBD>  (131) 
2

>  <HBA>  (131) 
3

>  <MW>  (131) 
220.132411132

>  <TPSA>  (131) 
81.57000000000001

>  <LogP>  (131) 
1.85048

>  <RBs>  (131) 
3

>  <G_bound>  (131) 
-6.547750176563779

>  <G_unbound>  (131) 
0.25922133749226445

>  <deltaG>  (131) 
-6.806971514056044

>  <comRMSD>  (131) 
0.3468667732129785

>  <substructure_overlap_check>  (131) 
True

>  <energy_ratio_check>  (131) 
True

>  <const_energy/unconst_energy>  (131) 
6.540824722497499

>  <sucos>  (131) 
0.5552073093440062

>  <interactions>  (131) 
Hydrophobic_HIS-21,Hydrophobic_PRO-107,HBDonor_SER-125

>  <total_num_ints>  (131) 
3

>  <total_num_ints_nonhyd>  (131) 
1

>  <num_uniq_frag_ints>  (131) 
1

>  <num_repl_uniq_ints>  (131) 
1

>  <num_uniq_ints_lost>  (131) 
0

>  <num_new_uniq_ints>  (131) 
2

>  <int_check>  (131) 
True

>  <ref_url>  (131) 
https://pubs.acs.org/doi/10.1021/acs.jcim.3c00276?fig=tgr1&ref=pdf

>  <submitter_name>  (131) 
Steph Wills

>  <submitter_institution>  (131) 
University of Oxford

>  <submitter_email>  (131) 
stephanie.wills@balliol.ox.ac.uk

>  <generation_date>  (131) 
2023-11-23

>  <method>  (131) 
FragNetv2

>  <original SMILES>  (131) 
CC(C)(C)Cc1cc(NC(=O)CC#N)[nH]n1

>  <original_name>  (131) 
x0556_0A-x0310_0A_327_PXX

>  <ref_mols>  (131) 
x0556_0A,x0310_0A

>  <ref_pdb>  (131) 
x0310_0A

>  <rationale>  (131) 
FragNet: perfect merge incl c1cn[nH]c1,N#CCC(=O)N[Xe]

$$$$
x0556_0A-x0310_0A_52263_B1X
     RDKit          3D

 20 20  0  0  0  0  0  0  0  0999 V2000
    9.5420    9.3910   23.2340 C   0  0  0  0  0  0  0  0  0  0  0  0
    8.7840   10.3540   23.9980 N   0  0  0  0  0  0  0  0  0  0  0  0
    7.8090   10.0240   24.9190 N   0  0  0  0  0  0  0  0  0  0  0  0
    7.3680   11.2150   25.3590 C   0  0  0  0  0  0  0  0  0  0  0  0
    6.2270   11.3130   26.4330 C   0  0  0  0  0  0  0  0  0  0  0  0
    5.2260   12.1370   26.0050 F   0  0  0  0  0  0  0  0  0  0  0  0
    6.6760   11.9210   27.5730 F   0  0  0  0  0  0  0  0  0  0  0  0
    5.6720   10.1320   26.7990 F   0  0  0  0  0  0  0  0  0  0  0  0
    8.1430   12.3060   24.6530 C   0  0  0  0  0  0  0  0  0  0  0  0
    9.0220   11.6960   23.8100 C   0  0  0  0  0  0  0  0  0  0  0  0
    9.9250   12.3270   22.9810 N   0  0  0  0  0  0  0  0  0  0  0  0
   10.8320   13.1940   23.3760 C   0  0  0  0  0  0  0  0  0  0  0  0
   10.8960   13.6770   24.4980 O   0  0  0  0  0  0  0  0  0  0  0  0
   11.8170   13.5850   22.2950 C   0  0  0  0  0  0  0  0  0  0  0  0
   12.5630   14.7370   22.7930 C   0  0  0  0  0  0  0  0  0  0  0  0
   11.8080   15.4940   23.6170 F   0  0  0  0  0  0  0  0  0  0  0  0
   13.6210   14.3370   23.5250 F   0  0  0  0  0  0  0  0  0  0  0  0
   12.9060   15.5070   21.6920 C   0  0  0  0  0  0  0  0  0  0  0  0
   12.5280   14.8510   20.5670 F   0  0  0  0  0  0  0  0  0  0  0  0
   12.1330   16.6130   21.7430 F   0  0  0  0  0  0  0  0  0  0  0  0
  1  2  1  0
  2  3  1  0
  3  4  2  0
  4  5  1  0
  5  6  1  0
  5  7  1  0
  5  8  1  0
  4  9  1  0
  9 10  2  0
 10 11  1  0
 11 12  1  0
 12 13  2  0
 12 14  1  0
 14 15  1  0
 15 16  1  0
 15 17  1  0
 15 18  1  0
 18 19  1  0
 18 20  1  0
 10  2  1  0
A    1
 C1 
A    2
 N1 
A    3
 N2 
A    4
 C2 
A    5
 C3 
A    6
 F1 
A    7
 F2 
A    8
 F3 
A    9
 C4 
A   10
 C5 
A   11
 N3 
A   12
 C6 
A   13
 O1 
A   14
 C7 
A   15
 C8 
A   16
 F4 
A   17
 F5 
A   18
 C9 
A   19
 F6 
A   20
 F7 
M  END
>  <similarity>  (132) 
1.0

>  <smiles>  (132) 
Cn1nc(C(F)(F)F)cc1NC(=O)CC(F)(F)C(F)F

>  <cmpd_id>  (132) 
ENAMINE:Z2874749960

>  <used_subnode>  (132) 
c1cn[nH]c1

>  <used_synthon>  (132) 
O=C(CC(F)(F)C(F)F)N[Xe]

>  <ref_subnode>  (132) 
c1cn[nH]c1

>  <ref_synthon>  (132) 
N#CCC(=O)N[Xe]

>  <fragmentA>  (132) 
x0556_0A

>  <fragmentB>  (132) 
x0310_0A

>  <HA>  (132) 
20

>  <HBD>  (132) 
1

>  <HBA>  (132) 
3

>  <MW>  (132) 
307.055559416

>  <TPSA>  (132) 
46.92

>  <LogP>  (132) 
2.6679000000000004

>  <RBs>  (132) 
4

>  <G_bound>  (132) 
-3.721336436243302

>  <G_unbound>  (132) 
1.1782715911628037

>  <deltaG>  (132) 
-4.899608027406106

>  <comRMSD>  (132) 
0.46166884105979006

>  <UFFGibbs>  (132) 
127.99954959794333

>  <strain_per_HA>  (132) 
6.399977479897166

>  <substructure_overlap_check>  (132) 
True

>  <energy_ratio_check>  (132) 
True

>  <const_energy/unconst_energy>  (132) 
1.0046691931236083

>  <sucos>  (132) 
0.5557928040905685

>  <interactions>  (132) 
HBDonor_SER-125,Hydrophobic_HIS-21,Hydrophobic_PRO-107

>  <total_num_ints>  (132) 
3

>  <total_num_ints_nonhyd>  (132) 
1

>  <num_uniq_frag_ints>  (132) 
1

>  <num_repl_uniq_ints>  (132) 
1

>  <num_uniq_ints_lost>  (132) 
0

>  <num_new_uniq_ints>  (132) 
2

>  <int_check>  (132) 
True

>  <ref_url>  (132) 
https://pubs.acs.org/doi/10.1021/acs.jcim.3c00276?fig=tgr1&ref=pdf

>  <submitter_name>  (132) 
Steph Wills

>  <submitter_institution>  (132) 
University of Oxford

>  <submitter_email>  (132) 
stephanie.wills@balliol.ox.ac.uk

>  <generation_date>  (132) 
2023-11-23

>  <method>  (132) 
FragNetv2

>  <original SMILES>  (132) 
Cn1nc(C(F)(F)F)cc1NC(=O)CC(F)(F)C(F)F

>  <original_name>  (132) 
x0556_0A-x0310_0A_52263_B1X

>  <ref_mols>  (132) 
x0556_0A,x0310_0A

>  <ref_pdb>  (132) 
x0310_0A

>  <rationale>  (132) 
FragNet: 1 round bioisosteric merging incl c1cn[nH]c1 and O=C(CC(F)(F)C(F)F)N[Xe] replacing N#CCC(=O)N[Xe]

$$$$
x0556_0A-x0310_0A_12166_B1X
     RDKit          3D

 18 18  0  0  0  0  0  0  0  0999 V2000
   10.0490    9.2190   22.1820 C   0  0  0  0  0  0  0  0  0  0  0  0
    9.7860    9.1480   23.6070 C   0  0  0  0  0  0  0  0  0  0  0  0
    8.8750   10.1370   24.1290 N   0  0  0  0  0  0  0  0  0  0  0  0
    7.8900    9.7800   25.0000 N   0  0  0  0  0  0  0  0  0  0  0  0
    7.2380   10.9030   25.3140 C   0  0  0  0  0  0  0  0  0  0  0  0
    6.1800   10.9380   26.1810 C   0  0  0  0  0  0  0  0  0  0  0  0
    7.9180   11.9990   24.5330 C   0  0  0  0  0  0  0  0  0  0  0  0
    8.9420   11.4770   23.8020 C   0  0  0  0  0  0  0  0  0  0  0  0
    9.7850   12.1750   22.9850 N   0  0  0  0  0  0  0  0  0  0  0  0
   10.6690   13.1540   23.5140 C   0  0  0  0  0  0  0  0  0  0  0  0
   10.6880   13.6000   24.6530 O   0  0  0  0  0  0  0  0  0  0  0  0
   11.6250   13.6280   22.4610 C   0  0  0  0  0  0  0  0  0  0  0  0
   12.5680   14.6290   23.0550 C   0  0  2  0  0  0  0  0  0  0  0  0
   12.4470   15.8830   22.2390 C   0  0  0  0  0  0  0  0  0  0  0  0
   13.9810   13.9560   23.0920 C   0  0  0  0  0  0  0  0  0  0  0  0
   15.1830   14.5630   23.3880 C   0  0  0  0  0  0  0  0  0  0  0  0
   14.0140   13.0240   24.1170 C   0  0  0  0  0  0  0  0  0  0  0  0
   14.3390   13.3350   21.7240 C   0  0  0  0  0  0  0  0  0  0  0  0
  1  2  1  0
  2  3  1  0
  3  4  1  0
  4  5  2  0
  5  6  1  0
  5  7  1  0
  7  8  2  0
  8  9  1  0
  9 10  1  0
 10 11  2  0
 10 12  1  0
 12 13  1  0
 13 14  1  6
 13 15  1  0
 15 16  1  0
 15 17  1  0
 15 18  1  0
  8  3  1  0
A    1
 C1 
A    2
 C2 
A    3
 N1 
A    4
 N2 
A    5
 C3 
A    6
 C4 
A    7
 C5 
A    8
 C6 
A    9
 N3 
A   10
 C7 
A   11
 O1 
A   12
 C8 
A   13
 C9 
A   14
 C10
A   15
 C11
A   16
 C12
A   17
 C13
A   18
 C14
M  END
>  <similarity>  (133) 
1.0

>  <smiles>  (133) 
CCn1nc(C)cc1NC(=O)CC(C)C(C)(C)C

>  <cmpd_id>  (133) 
ENAMINE:Z2721031565

>  <used_subnode>  (133) 
c1cn[nH]c1

>  <used_synthon>  (133) 
CC(CC(=O)N[Xe])C(C)(C)C

>  <ref_subnode>  (133) 
c1cn[nH]c1

>  <ref_synthon>  (133) 
N#CCC(=O)N[Xe]

>  <fragmentA>  (133) 
x0556_0A

>  <fragmentB>  (133) 
x0310_0A

>  <HA>  (133) 
18

>  <HBD>  (133) 
1

>  <HBA>  (133) 
3

>  <MW>  (133) 
251.19976241999998

>  <TPSA>  (133) 
46.92

>  <LogP>  (133) 
3.222220000000002

>  <RBs>  (133) 
4

>  <G_bound>  (133) 
-11.04080390044488

>  <G_unbound>  (133) 
0.48150617182089794

>  <deltaG>  (133) 
-11.522310072265778

>  <comRMSD>  (133) 
0.43421078054146006

>  <UFFGibbs>  (133) 
341.2198440725489

>  <strain_per_HA>  (133) 
18.956658004030494

>  <substructure_overlap_check>  (133) 
True

>  <energy_ratio_check>  (133) 
True

>  <const_energy/unconst_energy>  (133) 
1.0004700082343911

>  <sucos>  (133) 
0.5570207360451331

>  <interactions>  (133) 
HBDonor_SER-125,Hydrophobic_TYR-90,Hydrophobic_HIS-21,Hydrophobic_PRO-107,Hydrophobic_CYS-110,Hydrophobic_VAL-124,Hydrophobic_TYR-89

>  <total_num_ints>  (133) 
7

>  <total_num_ints_nonhyd>  (133) 
1

>  <num_uniq_frag_ints>  (133) 
1

>  <num_repl_uniq_ints>  (133) 
1

>  <num_uniq_ints_lost>  (133) 
0

>  <num_new_uniq_ints>  (133) 
6

>  <int_check>  (133) 
True

>  <ref_url>  (133) 
https://pubs.acs.org/doi/10.1021/acs.jcim.3c00276?fig=tgr1&ref=pdf

>  <submitter_name>  (133) 
Steph Wills

>  <submitter_institution>  (133) 
University of Oxford

>  <submitter_email>  (133) 
stephanie.wills@balliol.ox.ac.uk

>  <generation_date>  (133) 
2023-11-23

>  <method>  (133) 
FragNetv2

>  <original SMILES>  (133) 
CCn1nc(C)cc1NC(=O)CC(C)C(C)(C)C

>  <original_name>  (133) 
x0556_0A-x0310_0A_12166_B1X

>  <ref_mols>  (133) 
x0556_0A,x0310_0A

>  <ref_pdb>  (133) 
x0310_0A

>  <rationale>  (133) 
FragNet: 1 round bioisosteric merging incl c1cn[nH]c1 and CC(CC(=O)N[Xe])C(C)(C)C replacing N#CCC(=O)N[Xe]

$$$$
x0556_0A-x0310_0A_28534_B1X
     RDKit          3D

 20 21  0  0  0  0  0  0  0  0999 V2000
    6.7760   12.4330   27.7380 C   0  0  0  0  0  0  0  0  0  0  0  0
    6.3140   11.7680   26.4390 C   0  0  0  0  0  0  0  0  0  0  0  0
    5.3070   12.7590   25.8580 C   0  0  0  0  0  0  0  0  0  0  0  0
    5.7220   10.3490   26.6900 C   0  0  0  0  0  0  0  0  0  0  0  0
    7.4610   11.6260   25.4210 C   0  0  0  0  0  0  0  0  0  0  0  0
    8.1880   12.7040   24.6890 C   0  0  0  0  0  0  0  0  0  0  0  0
    9.1750   11.9460   23.8820 C   0  0  0  0  0  0  0  0  0  0  0  0
   10.0350   12.6480   23.0910 N   0  0  0  0  0  0  0  0  0  0  0  0
   10.9470   13.4330   23.7520 C   0  0  0  0  0  0  0  0  0  0  0  0
   10.8060   13.9960   24.8310 O   0  0  0  0  0  0  0  0  0  0  0  0
   12.2010   13.5450   22.9400 C   0  0  0  0  0  0  0  0  0  0  0  0
   12.2970   14.8460   22.2270 C   0  0  0  0  0  0  0  0  0  0  0  0
   11.9220   15.9710   21.9020 C   0  0  0  0  0  0  0  0  0  0  0  0
   13.2180   15.3440   21.3630 C   0  0  0  0  0  0  0  0  0  0  0  0
    9.0830   10.6770   24.0560 N   0  0  0  0  0  0  0  0  0  0  0  0
    9.7780    9.6560   23.5090 C   0  0  0  0  0  0  0  0  0  0  0  0
   11.0590    9.5270   23.4450 C   0  0  0  0  0  0  0  0  0  0  0  0
    9.1750    8.4620   23.6340 C   0  0  0  0  0  0  0  0  0  0  0  0
    9.9810    9.6950   22.1220 C   0  0  0  0  0  0  0  0  0  0  0  0
    8.0510   10.4030   24.9860 N   0  0  0  0  0  0  0  0  0  0  0  0
  1  2  1  0
  2  3  1  0
  2  4  1  0
  2  5  1  0
  5  6  1  0
  6  7  2  0
  7  8  1  0
  8  9  1  0
  9 10  2  0
  9 11  1  0
 11 12  2  3
 12 13  1  0
 13 14  1  0
  7 15  1  0
 15 16  1  0
 16 17  1  0
 16 18  1  0
 16 19  1  0
 15 20  1  0
 20  5  2  0
 14 12  1  0
A    1
 C1 
A    2
 C2 
A    3
 C3 
A    4
 C4 
A    5
 C5 
A    6
 C6 
A    7
 C7 
A    8
 N1 
A    9
 C8 
A   10
 O1 
A   11
 C9 
A   12
 C10
A   13
 C11
A   14
 C12
A   15
 N2 
A   16
 C13
A   17
 C14
A   18
 C15
A   19
 C16
A   20
 N3 
M  END
>  <similarity>  (134) 
1.0

>  <smiles>  (134) 
CC(C)(C)c1cc(NC(=O)C=C2CC2)n(C(C)(C)C)n1

>  <cmpd_id>  (134) 
ENAMINE:Z4098996442

>  <used_subnode>  (134) 
c1cn[nH]c1

>  <used_synthon>  (134) 
O=C(C=C1CC1)N[Xe]

>  <ref_subnode>  (134) 
c1cn[nH]c1

>  <ref_synthon>  (134) 
N#CCC(=O)N[Xe]

>  <fragmentA>  (134) 
x0556_0A

>  <fragmentB>  (134) 
x0310_0A

>  <HA>  (134) 
20

>  <HBD>  (134) 
1

>  <HBA>  (134) 
3

>  <MW>  (134) 
275.19976242

>  <TPSA>  (134) 
46.92

>  <LogP>  (134) 
3.5943000000000023

>  <RBs>  (134) 
2

>  <G_bound>  (134) 
-6.257158168943441

>  <G_unbound>  (134) 
-0.2884279688906812

>  <deltaG>  (134) 
-5.96873020005276

>  <comRMSD>  (134) 
0.7394584613950143

>  <UFFGibbs>  (134) 
109158.49247487643

>  <strain_per_HA>  (134) 
5457.924623743822

>  <substructure_overlap_check>  (134) 
True

>  <energy_ratio_check>  (134) 
True

>  <const_energy/unconst_energy>  (134) 
1.0000914012963127

>  <sucos>  (134) 
0.557863744751515

>  <interactions>  (134) 
HBDonor_SER-125,Hydrophobic_TYR-90,Hydrophobic_HIS-21,Hydrophobic_PRO-107,Hydrophobic_CYS-110,Hydrophobic_VAL-124,Hydrophobic_TYR-89,Hydrophobic_ASP-109

>  <total_num_ints>  (134) 
8

>  <total_num_ints_nonhyd>  (134) 
1

>  <num_uniq_frag_ints>  (134) 
1

>  <num_repl_uniq_ints>  (134) 
1

>  <num_uniq_ints_lost>  (134) 
0

>  <num_new_uniq_ints>  (134) 
7

>  <int_check>  (134) 
True

>  <ref_url>  (134) 
https://pubs.acs.org/doi/10.1021/acs.jcim.3c00276?fig=tgr1&ref=pdf

>  <submitter_name>  (134) 
Steph Wills

>  <submitter_institution>  (134) 
University of Oxford

>  <submitter_email>  (134) 
stephanie.wills@balliol.ox.ac.uk

>  <generation_date>  (134) 
2023-11-23

>  <method>  (134) 
FragNetv2

>  <original SMILES>  (134) 
CC(C)(C)c1cc(NC(=O)C=C2CC2)n(C(C)(C)C)n1

>  <original_name>  (134) 
x0556_0A-x0310_0A_28534_B1X

>  <ref_mols>  (134) 
x0556_0A,x0310_0A

>  <ref_pdb>  (134) 
x0310_0A

>  <rationale>  (134) 
FragNet: 1 round bioisosteric merging incl c1cn[nH]c1 and O=C(C=C1CC1)N[Xe] replacing N#CCC(=O)N[Xe]

$$$$
x0556_0A-x0310_0A_24381_B1X
     RDKit          3D

 15 15  0  0  0  0  0  0  0  0999 V2000
    7.6620   13.4780   25.0210 C   0  0  0  0  0  0  0  0  0  0  0  0
    8.1940   12.1330   24.5580 C   0  0  0  0  0  0  0  0  0  0  0  0
    7.6850   10.8050   25.0530 C   0  0  0  0  0  0  0  0  0  0  0  0
    8.2930    9.7060   24.5130 N   0  0  0  0  0  0  0  0  0  0  0  0
    9.1900   10.3390   23.6730 N   0  0  0  0  0  0  0  0  0  0  0  0
   10.1090    9.6040   22.8210 C   0  0  0  0  0  0  0  0  0  0  0  0
   11.1040    8.7270   23.3580 C   0  0  0  0  0  0  0  0  0  0  0  0
    9.4340    8.4560   22.2710 C   0  0  0  0  0  0  0  0  0  0  0  0
    9.1490   11.6730   23.6910 C   0  0  0  0  0  0  0  0  0  0  0  0
    9.9060   12.5800   22.9910 N   0  0  0  0  0  0  0  0  0  0  0  0
   10.7030   13.5430   23.6960 C   0  0  0  0  0  0  0  0  0  0  0  0
   10.3960   14.0640   24.7530 O   0  0  0  0  0  0  0  0  0  0  0  0
   12.0310   13.8970   23.0610 C   0  0  0  0  0  0  0  0  0  0  0  0
   13.0940   13.9200   24.1600 C   0  0  0  0  0  0  0  0  0  0  0  0
   12.0950   15.1590   22.4180 C   0  0  0  0  0  0  0  0  0  0  0  0
  1  2  1  0
  2  3  1  0
  3  4  2  0
  4  5  1  0
  5  6  1  0
  6  7  1  0
  6  8  1  0
  5  9  1  0
  9 10  1  0
 10 11  1  0
 11 12  2  0
 11 13  1  0
 13 14  1  0
 13 15  1  0
  9  2  2  0
A    1
 C1 
A    2
 C2 
A    3
 C3 
A    4
 N1 
A    5
 N2 
A    6
 C4 
A    7
 C5 
A    8
 C6 
A    9
 C7 
A   10
 N3 
A   11
 C8 
A   12
 O1 
A   13
 C9 
A   14
 C10
A   15
 C11
M  END
>  <similarity>  (135) 
1.0

>  <smiles>  (135) 
Cc1cnn(C(C)C)c1NC(=O)C(C)C

>  <cmpd_id>  (135) 
ENAMINE:Z4466623538

>  <used_subnode>  (135) 
c1cn[nH]c1

>  <used_synthon>  (135) 
CC(C)C(=O)N[Xe]

>  <ref_subnode>  (135) 
c1cn[nH]c1

>  <ref_synthon>  (135) 
N#CCC(=O)N[Xe]

>  <fragmentA>  (135) 
x0556_0A

>  <fragmentB>  (135) 
x0310_0A

>  <HA>  (135) 
15

>  <HBD>  (135) 
1

>  <HBA>  (135) 
3

>  <MW>  (135) 
209.152812228

>  <TPSA>  (135) 
46.92

>  <LogP>  (135) 
2.3669200000000004

>  <RBs>  (135) 
3

>  <G_bound>  (135) 
-8.225845938073633

>  <G_unbound>  (135) 
0.026971085924706397

>  <deltaG>  (135) 
-8.25281702399834

>  <comRMSD>  (135) 
0.7946789456112925

>  <UFFGibbs>  (135) 
1745.45216001892

>  <strain_per_HA>  (135) 
116.36347733459466

>  <substructure_overlap_check>  (135) 
True

>  <energy_ratio_check>  (135) 
True

>  <const_energy/unconst_energy>  (135) 
0.9955040394556813

>  <sucos>  (135) 
0.5584321314106508

>  <interactions>  (135) 
HBDonor_SER-125,Hydrophobic_TYR-90,Hydrophobic_HIS-21,Hydrophobic_PRO-107,Hydrophobic_CYS-110,Hydrophobic_VAL-124,Hydrophobic_TYR-89,Hydrophobic_ASP-109

>  <total_num_ints>  (135) 
8

>  <total_num_ints_nonhyd>  (135) 
1

>  <num_uniq_frag_ints>  (135) 
1

>  <num_repl_uniq_ints>  (135) 
1

>  <num_uniq_ints_lost>  (135) 
0

>  <num_new_uniq_ints>  (135) 
7

>  <int_check>  (135) 
True

>  <ref_url>  (135) 
https://pubs.acs.org/doi/10.1021/acs.jcim.3c00276?fig=tgr1&ref=pdf

>  <submitter_name>  (135) 
Steph Wills

>  <submitter_institution>  (135) 
University of Oxford

>  <submitter_email>  (135) 
stephanie.wills@balliol.ox.ac.uk

>  <generation_date>  (135) 
2023-11-23

>  <method>  (135) 
FragNetv2

>  <original SMILES>  (135) 
Cc1cnn(C(C)C)c1NC(=O)C(C)C

>  <original_name>  (135) 
x0556_0A-x0310_0A_24381_B1X

>  <ref_mols>  (135) 
x0556_0A,x0310_0A

>  <ref_pdb>  (135) 
x0310_0A

>  <rationale>  (135) 
FragNet: 1 round bioisosteric merging incl c1cn[nH]c1 and CC(C)C(=O)N[Xe] replacing N#CCC(=O)N[Xe]

$$$$
x0556_0A-x0310_0A_17132_B1X_rgrp-0
     RDKit          3D

 19 19  0  0  0  0  0  0  0  0999 V2000
    5.3010    9.8940   27.5280 C   0  0  0  0  0  0  0  0  0  0  0  0
    5.2770   10.7420   26.3860 O   0  0  0  0  0  0  0  0  0  0  0  0
    6.3210   11.6130   26.3170 C   0  0  0  0  0  0  0  0  0  0  0  0
    6.3900   12.6350   27.0010 O   0  0  0  0  0  0  0  0  0  0  0  0
    7.3170   11.2510   25.4130 C   0  0  0  0  0  0  0  0  0  0  0  0
    7.5420    9.9200   25.1530 N   0  0  0  0  0  0  0  0  0  0  0  0
    8.5550    9.9230   24.2660 N   0  0  0  0  0  0  0  0  0  0  0  0
    8.9850   11.2030   23.9550 C   0  0  0  0  0  0  0  0  0  0  0  0
    9.9990   11.5890   23.1160 N   0  0  0  0  0  0  0  0  0  0  0  0
   10.6550   12.7370   23.5070 C   0  0  0  0  0  0  0  0  0  0  0  0
   10.4930   13.2240   24.6130 O   0  0  0  0  0  0  0  0  0  0  0  0
   11.5460   13.3790   22.5040 C   0  0  0  0  0  0  0  0  0  0  0  0
   12.5150   14.3060   23.1620 C   0  0  0  0  0  0  0  0  0  0  0  0
   13.4380   13.6670   24.0830 C   0  0  0  0  0  0  0  0  0  0  0  0
   11.8950   15.2900   24.0670 C   0  0  0  0  0  0  0  0  0  0  0  0
   13.1750   15.0380   22.0820 C   0  0  0  0  0  0  0  0  0  0  0  0
   13.6300   15.6180   21.2170 N   0  0  0  0  0  0  0  0  0  0  0  0
    8.1960   12.0740   24.6730 C   0  0  0  0  0  0  0  0  0  0  0  0
    8.2330   13.5870   24.7020 C   0  0  0  0  0  0  0  0  0  0  0  0
  1  2  1  0
  2  3  1  0
  3  4  2  0
  3  5  1  0
  5  6  2  0
  6  7  1  0
  7  8  1  0
  8  9  1  0
  9 10  1  0
 10 11  2  0
 10 12  1  0
 12 13  1  0
 13 14  1  0
 13 15  1  0
 13 16  1  0
 16 17  3  0
  8 18  2  0
 18 19  1  0
 18  5  1  0
A    1
 C1 
A    2
 O1 
A    3
 C2 
A    4
 O2 
A    5
 C3 
A    6
 N1 
A    7
 N2 
A    8
 C4 
A    9
 N3 
A   10
 C5 
A   11
 O3 
A   12
 C6 
A   13
 C7 
A   14
 C8 
A   15
 C9 
A   16
 C10
A   17
 N4 
A   18
 C11
A   19
 C12
M  END
>  <similarity>  (136) 
1.0

>  <smiles>  (136) 
COC(=O)c1n[nH]c(NC(=O)CC(C)(C)C#N)c1C

>  <cmpd_id>  (136) 
ENAMINE:PV-002300744768

>  <used_subnode>  (136) 
c1cn[nH]c1

>  <used_synthon>  (136) 
CC(C)(C#N)CC(=O)N[Xe]

>  <ref_subnode>  (136) 
c1cn[nH]c1

>  <ref_synthon>  (136) 
N#CCC(=O)N[Xe]

>  <fragmentA>  (136) 
x0556_0A

>  <fragmentB>  (136) 
x0310_0A

>  <HA>  (136) 
19

>  <HBD>  (136) 
2

>  <HBA>  (136) 
5

>  <MW>  (136) 
264.122240372

>  <TPSA>  (136) 
107.86999999999998

>  <LogP>  (136) 
1.3830999999999996

>  <RBs>  (136) 
4

>  <G_bound>  (136) 
-7.42862402092822

>  <G_unbound>  (136) 
0.4615414801294939

>  <deltaG>  (136) 
-7.890165501057714

>  <comRMSD>  (136) 
0.22406632296169296

>  <substructure_overlap_check>  (136) 
True

>  <energy_ratio_check>  (136) 
True

>  <const_energy/unconst_energy>  (136) 
4.263560607086892

>  <sucos>  (136) 
0.5591423222788484

>  <interactions>  (136) 
Hydrophobic_PRO-107,Hydrophobic_HIS-21,Hydrophobic_TYR-89,HBDonor_SER-125,HBDonor_SER-105

>  <total_num_ints>  (136) 
5

>  <total_num_ints_nonhyd>  (136) 
2

>  <num_uniq_frag_ints>  (136) 
1

>  <num_repl_uniq_ints>  (136) 
1

>  <num_uniq_ints_lost>  (136) 
0

>  <num_new_uniq_ints>  (136) 
4

>  <int_check>  (136) 
True

>  <ref_url>  (136) 
https://pubs.acs.org/doi/10.1021/acs.jcim.3c00276?fig=tgr1&ref=pdf

>  <submitter_name>  (136) 
Steph Wills

>  <submitter_institution>  (136) 
University of Oxford

>  <submitter_email>  (136) 
stephanie.wills@balliol.ox.ac.uk

>  <generation_date>  (136) 
2023-11-23

>  <method>  (136) 
FragNetv2

>  <original SMILES>  (136) 
COC(=O)c1n[nH]c(NC(=O)CC(C)(C)C#N)c1C

>  <original_name>  (136) 
x0556_0A-x0310_0A_17132_B1X_rgrp-0

>  <ref_mols>  (136) 
x0556_0A,x0310_0A

>  <ref_pdb>  (136) 
x0310_0A

>  <rationale>  (136) 
FragNet: 1 round bioisosteric merging incl c1cn[nH]c1 and CC(C)(C#N)CC(=O)N[Xe] replacing N#CCC(=O)N[Xe]

$$$$
x0556_0A-x0310_0A_9196_B1X
     RDKit          3D

 16 16  0  0  0  0  0  0  0  0999 V2000
   10.7890    8.8080   23.2110 C   0  0  0  0  0  0  0  0  0  0  0  0
    9.5560    9.4200   22.8210 C   0  0  0  0  0  0  0  0  0  0  0  0
    8.8850   10.2970   23.7520 N   0  0  0  0  0  0  0  0  0  0  0  0
    8.0450    9.7590   24.6570 N   0  0  0  0  0  0  0  0  0  0  0  0
    7.5910   10.8220   25.2950 C   0  0  0  0  0  0  0  0  0  0  0  0
    8.1390   12.1330   24.8230 C   0  0  0  0  0  0  0  0  0  0  0  0
    7.7570   13.2860   25.3880 C   0  0  0  0  0  0  0  0  0  0  0  0
    8.9940   11.7540   23.8170 C   0  0  0  0  0  0  0  0  0  0  0  0
    9.7910   12.5640   23.0240 N   0  0  0  0  0  0  0  0  0  0  0  0
   10.5050   13.5620   23.6510 C   0  0  0  0  0  0  0  0  0  0  0  0
   10.2770   14.0590   24.7410 O   0  0  0  0  0  0  0  0  0  0  0  0
   11.7100   14.0320   22.8210 C   0  0  0  0  0  0  0  0  0  0  0  0
   13.0910   14.1350   23.4410 C   0  0  0  0  0  0  0  0  0  0  0  0
   11.5560   14.4200   21.3560 C   0  0  0  0  0  0  0  0  0  0  0  0
   10.3030   14.4720   20.4880 C   0  0  0  0  0  0  0  0  0  0  0  0
   12.5950   14.8000   20.5600 C   0  0  0  0  0  0  0  0  0  0  0  0
  1  2  1  0
  2  3  1  0
  3  4  1  0
  4  5  2  0
  5  6  1  0
  6  7  1  0
  6  8  2  0
  8  9  1  0
  9 10  1  0
 10 11  2  0
 10 12  1  0
 12 13  1  0
 12 14  2  3
 14 15  1  0
 14 16  1  0
  8  3  1  0
A    1
 C1 
A    2
 C2 
A    3
 N1 
A    4
 N2 
A    5
 C3 
A    6
 C4 
A    7
 C5 
A    8
 C6 
A    9
 N3 
A   10
 C7 
A   11
 O1 
A   12
 C8 
A   13
 C9 
A   14
 C10
A   15
 C11
A   16
 C12
M  END
>  <similarity>  (137) 
1.0

>  <smiles>  (137) 
CCn1ncc(C)c1NC(=O)C(C)=C(C)C

>  <cmpd_id>  (137) 
ENAMINE:Z2645579487

>  <used_subnode>  (137) 
c1cn[nH]c1

>  <used_synthon>  (137) 
CC(C)=C(C)C(=O)N[Xe]

>  <ref_subnode>  (137) 
c1cn[nH]c1

>  <ref_synthon>  (137) 
N#CCC(=O)N[Xe]

>  <fragmentA>  (137) 
x0556_0A

>  <fragmentB>  (137) 
x0310_0A

>  <HA>  (137) 
16

>  <HBD>  (137) 
1

>  <HBA>  (137) 
3

>  <MW>  (137) 
221.152812228

>  <TPSA>  (137) 
46.92

>  <LogP>  (137) 
2.506220000000001

>  <RBs>  (137) 
3

>  <G_bound>  (137) 
-10.495657441181057

>  <G_unbound>  (137) 
-0.5096528014695562

>  <deltaG>  (137) 
-9.986004639711501

>  <comRMSD>  (137) 
0.9599329131960213

>  <UFFGibbs>  (137) 
135.55684202972608

>  <strain_per_HA>  (137) 
8.47230262685788

>  <substructure_overlap_check>  (137) 
True

>  <energy_ratio_check>  (137) 
True

>  <const_energy/unconst_energy>  (137) 
1.003992367645458

>  <sucos>  (137) 
0.5593299875714969

>  <interactions>  (137) 
HBDonor_SER-125,Hydrophobic_TYR-90,Hydrophobic_HIS-21,Hydrophobic_PRO-107,Hydrophobic_CYS-110,Hydrophobic_VAL-124,Hydrophobic_TYR-89,Hydrophobic_ASP-109,Hydrophobic_THR-126

>  <total_num_ints>  (137) 
9

>  <total_num_ints_nonhyd>  (137) 
1

>  <num_uniq_frag_ints>  (137) 
1

>  <num_repl_uniq_ints>  (137) 
1

>  <num_uniq_ints_lost>  (137) 
0

>  <num_new_uniq_ints>  (137) 
8

>  <int_check>  (137) 
True

>  <ref_url>  (137) 
https://pubs.acs.org/doi/10.1021/acs.jcim.3c00276?fig=tgr1&ref=pdf

>  <submitter_name>  (137) 
Steph Wills

>  <submitter_institution>  (137) 
University of Oxford

>  <submitter_email>  (137) 
stephanie.wills@balliol.ox.ac.uk

>  <generation_date>  (137) 
2023-11-23

>  <method>  (137) 
FragNetv2

>  <original SMILES>  (137) 
CCn1ncc(C)c1NC(=O)C(C)=C(C)C

>  <original_name>  (137) 
x0556_0A-x0310_0A_9196_B1X

>  <ref_mols>  (137) 
x0556_0A,x0310_0A

>  <ref_pdb>  (137) 
x0310_0A

>  <rationale>  (137) 
FragNet: 1 round bioisosteric merging incl c1cn[nH]c1 and CC(C)=C(C)C(=O)N[Xe] replacing N#CCC(=O)N[Xe]

$$$$
x0556_0A-x0310_0A_50718_B1X
     RDKit          3D

 15 16  0  0  0  0  0  0  0  0999 V2000
    9.8440    9.3150   23.0200 C   0  0  0  0  0  0  0  0  0  0  0  0
    9.1060   10.2370   23.7470 N   0  0  0  0  0  0  0  0  0  0  0  0
    8.1280    9.8400   24.6520 N   0  0  0  0  0  0  0  0  0  0  0  0
    7.6140   10.9850   25.1590 C   0  0  0  0  0  0  0  0  0  0  0  0
    6.4690   11.0280   26.2240 C   0  0  0  0  0  0  0  0  0  0  0  0
    6.4560   10.2110   27.1490 O   0  0  0  0  0  0  0  0  0  0  0  0
    8.3630   12.1210   24.4970 C   0  0  0  0  0  0  0  0  0  0  0  0
    9.2720   11.5930   23.6380 C   0  0  0  0  0  0  0  0  0  0  0  0
   10.1480   12.3570   22.8590 N   0  0  0  0  0  0  0  0  0  0  0  0
   11.2390   13.0460   23.3290 C   0  0  0  0  0  0  0  0  0  0  0  0
   11.4090   13.3220   24.5090 O   0  0  0  0  0  0  0  0  0  0  0  0
   12.2840   13.4890   22.2540 C   0  0  0  0  0  0  0  0  0  0  0  0
   12.4230   14.8440   22.0420 C   0  0  0  0  0  0  0  0  0  0  0  0
   11.8510   15.8960   22.5290 C   0  0  0  0  0  0  0  0  0  0  0  0
   11.2750   14.7390   23.2410 C   0  0  0  0  0  0  0  0  0  0  0  0
  1  2  1  0
  2  3  1  0
  3  4  2  0
  4  5  1  0
  5  6  1  0
  4  7  1  0
  7  8  2  0
  8  9  1  0
  9 10  1  0
 10 11  2  0
 10 12  1  0
 12 13  2  3
 13 14  1  0
 14 15  1  0
  8  2  1  0
 15 13  1  0
A    1
 C1 
A    2
 N1 
A    3
 N2 
A    4
 C2 
A    5
 C3 
A    6
 O1 
A    7
 C4 
A    8
 C5 
A    9
 N3 
A   10
 C6 
A   11
 O2 
A   12
 C7 
A   13
 C8 
A   14
 C9 
A   15
 C10
M  END
>  <similarity>  (138) 
1.0

>  <smiles>  (138) 
Cn1nc(CO)cc1NC(=O)C=C1CC1

>  <cmpd_id>  (138) 
ENAMINE:Z4101308894

>  <used_subnode>  (138) 
c1cn[nH]c1

>  <used_synthon>  (138) 
O=C(C=C1CC1)N[Xe]

>  <ref_subnode>  (138) 
c1cn[nH]c1

>  <ref_synthon>  (138) 
N#CCC(=O)N[Xe]

>  <fragmentA>  (138) 
x0556_0A

>  <fragmentB>  (138) 
x0310_0A

>  <HA>  (138) 
15

>  <HBD>  (138) 
2

>  <HBA>  (138) 
4

>  <MW>  (138) 
207.100776656

>  <TPSA>  (138) 
67.15

>  <LogP>  (138) 
0.5711

>  <RBs>  (138) 
3

>  <G_bound>  (138) 
-6.139828916875041

>  <G_unbound>  (138) 
0.3805884520750554

>  <deltaG>  (138) 
-6.520417368950096

>  <comRMSD>  (138) 
0.5683609791404871

>  <UFFGibbs>  (138) 
2719.4669213365673

>  <strain_per_HA>  (138) 
181.29779475577115

>  <substructure_overlap_check>  (138) 
True

>  <energy_ratio_check>  (138) 
True

>  <const_energy/unconst_energy>  (138) 
0.9981170413182373

>  <sucos>  (138) 
0.5594794794231783

>  <interactions>  (138) 
HBDonor_SER-125,Hydrophobic_TYR-90,Hydrophobic_HIS-21,HBDonor_SER-105,Hydrophobic_PRO-107,Hydrophobic_TYR-89

>  <total_num_ints>  (138) 
6

>  <total_num_ints_nonhyd>  (138) 
2

>  <num_uniq_frag_ints>  (138) 
1

>  <num_repl_uniq_ints>  (138) 
1

>  <num_uniq_ints_lost>  (138) 
0

>  <num_new_uniq_ints>  (138) 
5

>  <int_check>  (138) 
True

>  <ref_url>  (138) 
https://pubs.acs.org/doi/10.1021/acs.jcim.3c00276?fig=tgr1&ref=pdf

>  <submitter_name>  (138) 
Steph Wills

>  <submitter_institution>  (138) 
University of Oxford

>  <submitter_email>  (138) 
stephanie.wills@balliol.ox.ac.uk

>  <generation_date>  (138) 
2023-11-23

>  <method>  (138) 
FragNetv2

>  <original SMILES>  (138) 
Cn1nc(CO)cc1NC(=O)C=C1CC1

>  <original_name>  (138) 
x0556_0A-x0310_0A_50718_B1X

>  <ref_mols>  (138) 
x0556_0A,x0310_0A

>  <ref_pdb>  (138) 
x0310_0A

>  <rationale>  (138) 
FragNet: 1 round bioisosteric merging incl c1cn[nH]c1 and O=C(C=C1CC1)N[Xe] replacing N#CCC(=O)N[Xe]

$$$$
x0556_0A-x0310_0A_43127_B1X_rgrp-0
     RDKit          3D

 22 23  0  0  0  0  0  0  0  0999 V2000
   13.4470   15.5290   21.2200 C   0  0  0  0  0  0  0  0  0  0  0  0
   12.2430   15.7220   21.9720 C   0  0  0  0  0  0  0  0  0  0  0  0
   11.8860   14.8760   22.9610 C   0  0  1  0  0  0  0  0  0  0  0  0
   11.2830   13.6040   22.5230 C   0  0  0  0  0  0  0  0  0  0  0  0
   10.3550   13.0240   23.5490 C   0  0  0  0  0  0  0  0  0  0  0  0
   10.4880   13.2070   24.7410 O   0  0  0  0  0  0  0  0  0  0  0  0
    9.4030   12.3200   22.9730 N   0  0  0  0  0  0  0  0  0  0  0  0
    8.6750   11.5530   23.8140 C   0  0  0  0  0  0  0  0  0  0  0  0
    7.6230   11.8440   24.7830 C   0  0  0  0  0  0  0  0  0  0  0  0
    7.0770   13.2470   25.0660 C   0  0  0  0  0  0  0  0  0  0  0  0
    6.5600   14.0040   23.9850 C   0  0  0  0  0  0  0  0  0  0  0  0
    6.0550   15.2700   24.2850 C   0  0  0  0  0  0  0  0  0  0  0  0
    6.0100   15.8790   25.5800 C   0  0  0  0  0  0  0  0  0  0  0  0
    6.5290   15.1150   26.6010 C   0  0  0  0  0  0  0  0  0  0  0  0
    7.0870   13.7420   26.3490 C   0  0  0  0  0  0  0  0  0  0  0  0
    7.2750   10.6090   25.3490 C   0  0  0  0  0  0  0  0  0  0  0  0
    8.0770    9.5380   24.7680 N   0  0  0  0  0  0  0  0  0  0  0  0
    8.8550   10.1840   23.8970 N   0  0  0  0  0  0  0  0  0  0  0  0
    9.8620    9.5340   23.0470 C   0  0  0  0  0  0  0  0  0  0  0  0
   12.8350   14.6640   24.1480 C   0  0  0  0  0  0  0  0  0  0  0  0
   13.3890   13.3140   24.2190 C   0  0  0  0  0  0  0  0  0  0  0  0
   12.1800   15.0050   25.4830 C   0  0  0  0  0  0  0  0  0  0  0  0
  1  2  1  0
  3  2  1  6
  3  4  1  0
  4  5  1  0
  5  6  2  0
  5  7  1  0
  7  8  1  0
  8  9  2  0
  9 10  1  0
 10 11  2  0
 11 12  1  0
 12 13  2  0
 13 14  1  0
 14 15  2  0
  9 16  1  0
 16 17  2  0
 17 18  1  0
 18 19  1  0
  3 20  1  0
 20 21  1  0
 20 22  1  0
 18  8  1  0
 15 10  1  0
A    1
 C1 
A    2
 C2 
A    3
 C3 
A    4
 C4 
A    5
 C5 
A    6
 O1 
A    7
 N1 
A    8
 C6 
A    9
 C7 
A   10
 C8 
A   11
 C9 
A   12
 C10
A   13
 C11
A   14
 C12
A   15
 C13
A   16
 C14
A   17
 N2 
A   18
 N3 
A   19
 C15
A   20
 C16
A   21
 C17
A   22
 C18
M  END
>  <similarity>  (139) 
1.0

>  <smiles>  (139) 
CCC(CC(=O)Nc1c(-c2ccccc2)cnn1C)C(C)C

>  <cmpd_id>  (139) 
ENAMINE:Z4344800883

>  <used_subnode>  (139) 
c1cn[nH]c1

>  <used_synthon>  (139) 
CCC(CC(=O)N[Xe])C(C)C

>  <ref_subnode>  (139) 
c1cn[nH]c1

>  <ref_synthon>  (139) 
N#CCC(=O)N[Xe]

>  <fragmentA>  (139) 
x0556_0A

>  <fragmentB>  (139) 
x0310_0A

>  <HA>  (139) 
22

>  <HBD>  (139) 
1

>  <HBA>  (139) 
3

>  <MW>  (139) 
299.19976242

>  <TPSA>  (139) 
46.92

>  <LogP>  (139) 
4.097900000000003

>  <RBs>  (139) 
6

>  <G_bound>  (139) 
-10.882424916003913

>  <G_unbound>  (139) 
-1.5625378309143891

>  <deltaG>  (139) 
-9.319887085089524

>  <comRMSD>  (139) 
0.39683470949595734

>  <substructure_overlap_check>  (139) 
True

>  <energy_ratio_check>  (139) 
True

>  <const_energy/unconst_energy>  (139) 
3.777541954561188

>  <sucos>  (139) 
0.5617595125990983

>  <interactions>  (139) 
Hydrophobic_GLU-88,Hydrophobic_PRO-107,Hydrophobic_HIS-21,Hydrophobic_TYR-89,HBDonor_SER-125,Hydrophobic_TYR-90

>  <total_num_ints>  (139) 
6

>  <total_num_ints_nonhyd>  (139) 
1

>  <num_uniq_frag_ints>  (139) 
1

>  <num_repl_uniq_ints>  (139) 
1

>  <num_uniq_ints_lost>  (139) 
0

>  <num_new_uniq_ints>  (139) 
5

>  <int_check>  (139) 
True

>  <ref_url>  (139) 
https://pubs.acs.org/doi/10.1021/acs.jcim.3c00276?fig=tgr1&ref=pdf

>  <submitter_name>  (139) 
Steph Wills

>  <submitter_institution>  (139) 
University of Oxford

>  <submitter_email>  (139) 
stephanie.wills@balliol.ox.ac.uk

>  <generation_date>  (139) 
2023-11-23

>  <method>  (139) 
FragNetv2

>  <original SMILES>  (139) 
CCC(CC(=O)Nc1c(-c2ccccc2)cnn1C)C(C)C

>  <original_name>  (139) 
x0556_0A-x0310_0A_43127_B1X_rgrp-0

>  <ref_mols>  (139) 
x0556_0A,x0310_0A

>  <ref_pdb>  (139) 
x0310_0A

>  <rationale>  (139) 
FragNet: 1 round bioisosteric merging incl c1cn[nH]c1 and CCC(CC(=O)N[Xe])C(C)C replacing N#CCC(=O)N[Xe]

$$$$
x0556_0A-x0310_0A_154_PXX
     RDKit          3D

 17 18  0  0  0  0  0  0  0  0999 V2000
   12.1060   16.2320   22.4910 N   0  0  0  0  0  0  0  0  0  0  0  0
   12.1300   15.0860   22.5970 C   0  0  0  0  0  0  0  0  0  0  0  0
   12.0820   13.6410   22.7450 C   0  0  0  0  0  0  0  0  0  0  0  0
   10.8920   13.2800   23.5860 C   0  0  0  0  0  0  0  0  0  0  0  0
   10.7660   13.6950   24.7290 O   0  0  0  0  0  0  0  0  0  0  0  0
    9.9550   12.4560   23.0010 N   0  0  0  0  0  0  0  0  0  0  0  0
    8.9620   11.7630   23.8750 C   0  0  0  0  0  0  0  0  0  0  0  0
    8.8120   10.2640   24.1330 C   0  0  0  0  0  0  0  0  0  0  0  0
    7.8110    9.9930   24.9850 N   0  0  0  0  0  0  0  0  0  0  0  0
    7.2530   11.1870   25.3370 N   0  0  0  0  0  0  0  0  0  0  0  0
    6.0960   11.3510   26.2580 C   0  0  0  0  0  0  0  0  0  0  0  0
    6.0380   10.5340   27.5360 C   0  0  0  0  0  0  0  0  0  0  0  0
    4.6560   10.5470   28.1930 C   0  0  0  0  0  0  0  0  0  0  0  0
    4.0240   11.8840   28.1350 C   0  0  0  0  0  0  0  0  0  0  0  0
    4.4410   13.0200   27.1990 C   0  0  0  0  0  0  0  0  0  0  0  0
    5.8190   12.8260   26.5600 C   0  0  0  0  0  0  0  0  0  0  0  0
    7.8440   12.2650   24.7520 C   0  0  0  0  0  0  0  0  0  0  0  0
  1  2  3  0
  2  3  1  0
  3  4  1  0
  4  5  2  0
  4  6  1  0
  6  7  1  0
  7  8  1  0
  8  9  2  0
  9 10  1  0
 10 11  1  0
 11 12  1  0
 12 13  1  0
 13 14  1  0
 14 15  1  0
 15 16  1  0
 10 17  1  0
 17  7  2  0
 16 11  1  0
A    1
 N1 
A    2
 C1 
A    3
 C2 
A    4
 C3 
A    5
 O1 
A    6
 N2 
A    7
 C4 
A    8
 C5 
A    9
 N3 
A   10
 N4 
A   11
 C6 
A   12
 C7 
A   13
 C8 
A   14
 C9 
A   15
 C10
A   16
 C11
A   17
 C12
M  END
>  <similarity>  (140) 
NA

>  <smiles>  (140) 
N#CCC(=O)Nc1cnn(C2CCCCC2)c1

>  <cmpd_id>  (140) 
ENAMINE:Z3613598907

>  <used_subnode>  (140) 
NA

>  <used_synthon>  (140) 
NA

>  <ref_subnode>  (140) 
c1cn[nH]c1

>  <ref_synthon>  (140) 
N#CCC(=O)N[Xe]

>  <fragmentA>  (140) 
x0556_0A

>  <fragmentB>  (140) 
x0310_0A

>  <HA>  (140) 
17

>  <HBD>  (140) 
1

>  <HBA>  (140) 
4

>  <MW>  (140) 
232.132411132

>  <TPSA>  (140) 
70.71000000000001

>  <LogP>  (140) 
2.24048

>  <RBs>  (140) 
3

>  <G_bound>  (140) 
-5.397471063457166

>  <G_unbound>  (140) 
0.464975903037056

>  <deltaG>  (140) 
-5.862446966494222

>  <comRMSD>  (140) 
1.3435064647242456

>  <substructure_overlap_check>  (140) 
True

>  <energy_ratio_check>  (140) 
True

>  <const_energy/unconst_energy>  (140) 
2.6350817525117614

>  <sucos>  (140) 
0.5618053573620024

>  <interactions>  (140) 
Hydrophobic_HIS-21,Hydrophobic_PRO-107,HBDonor_SER-125

>  <total_num_ints>  (140) 
3

>  <total_num_ints_nonhyd>  (140) 
1

>  <num_uniq_frag_ints>  (140) 
1

>  <num_repl_uniq_ints>  (140) 
1

>  <num_uniq_ints_lost>  (140) 
0

>  <num_new_uniq_ints>  (140) 
2

>  <int_check>  (140) 
True

>  <ref_url>  (140) 
https://pubs.acs.org/doi/10.1021/acs.jcim.3c00276?fig=tgr1&ref=pdf

>  <submitter_name>  (140) 
Steph Wills

>  <submitter_institution>  (140) 
University of Oxford

>  <submitter_email>  (140) 
stephanie.wills@balliol.ox.ac.uk

>  <generation_date>  (140) 
2023-11-23

>  <method>  (140) 
FragNetv2

>  <original SMILES>  (140) 
N#CCC(=O)Nc1cnn(C2CCCCC2)c1

>  <original_name>  (140) 
x0556_0A-x0310_0A_154_PXX

>  <ref_mols>  (140) 
x0556_0A,x0310_0A

>  <ref_pdb>  (140) 
x0310_0A

>  <rationale>  (140) 
FragNet: perfect merge incl c1cn[nH]c1,N#CCC(=O)N[Xe]

$$$$
x0556_0A-x0310_0A_134_PXX
     RDKit          3D

 14 14  0  0  0  0  0  0  0  0999 V2000
    9.9810    9.3470   22.9820 C   0  0  0  0  0  0  0  0  0  0  0  0
    9.1290   10.2400   23.7280 N   0  0  0  0  0  0  0  0  0  0  0  0
    8.1980    9.7090   24.5670 N   0  0  0  0  0  0  0  0  0  0  0  0
    7.5690   10.7530   25.0880 C   0  0  0  0  0  0  0  0  0  0  0  0
    8.1280   12.0390   24.5580 C   0  0  0  0  0  0  0  0  0  0  0  0
    7.6700   13.4090   24.9120 C   0  0  0  0  0  0  0  0  0  0  0  0
    6.2090   13.4330   25.0780 N   0  0  0  0  0  0  0  0  0  0  0  0
    9.1390   11.6120   23.6940 C   0  0  0  0  0  0  0  0  0  0  0  0
    9.9690   12.4580   22.9670 N   0  0  0  0  0  0  0  0  0  0  0  0
   10.8740   13.2990   23.5670 C   0  0  0  0  0  0  0  0  0  0  0  0
   10.7720   13.7540   24.6960 O   0  0  0  0  0  0  0  0  0  0  0  0
   12.0680   13.6580   22.7230 C   0  0  0  0  0  0  0  0  0  0  0  0
   12.1240   15.1030   22.5840 C   0  0  0  0  0  0  0  0  0  0  0  0
   12.1130   16.2480   22.4860 N   0  0  0  0  0  0  0  0  0  0  0  0
  1  2  1  0
  2  3  1  0
  3  4  2  0
  4  5  1  0
  5  6  1  0
  6  7  1  0
  5  8  2  0
  8  9  1  0
  9 10  1  0
 10 11  2  0
 10 12  1  0
 12 13  1  0
 13 14  3  0
  8  2  1  0
A    1
 C1 
A    2
 N1 
A    3
 N2 
A    4
 C2 
A    5
 C3 
A    6
 C4 
A    7
 N3 
A    8
 C5 
A    9
 N4 
A   10
 C6 
A   11
 O1 
A   12
 C7 
A   13
 C8 
A   14
 N5 
M  END
>  <similarity>  (141) 
NA

>  <smiles>  (141) 
Cn1ncc(CN)c1NC(=O)CC#N

>  <cmpd_id>  (141) 
ENAMINE:PV-003041602301

>  <used_subnode>  (141) 
NA

>  <used_synthon>  (141) 
NA

>  <ref_subnode>  (141) 
c1cn[nH]c1

>  <ref_synthon>  (141) 
N#CCC(=O)N[Xe]

>  <fragmentA>  (141) 
x0556_0A

>  <fragmentB>  (141) 
x0310_0A

>  <HA>  (141) 
14

>  <HBD>  (141) 
2

>  <HBA>  (141) 
5

>  <MW>  (141) 
193.096359972

>  <TPSA>  (141) 
96.72999999999999

>  <LogP>  (141) 
-0.26902000000000004

>  <RBs>  (141) 
3

>  <G_bound>  (141) 
-8.356991582793897

>  <G_unbound>  (141) 
0.512307956571697

>  <deltaG>  (141) 
-8.869299539365594

>  <comRMSD>  (141) 
0.4318354408223028

>  <substructure_overlap_check>  (141) 
True

>  <energy_ratio_check>  (141) 
True

>  <const_energy/unconst_energy>  (141) 
1.5675011306634188

>  <sucos>  (141) 
0.5636029930204098

>  <interactions>  (141) 
Hydrophobic_HIS-21,HBDonor_GLY-127,Hydrophobic_PRO-107,HBDonor_SER-125

>  <total_num_ints>  (141) 
4

>  <total_num_ints_nonhyd>  (141) 
2

>  <num_uniq_frag_ints>  (141) 
1

>  <num_repl_uniq_ints>  (141) 
1

>  <num_uniq_ints_lost>  (141) 
0

>  <num_new_uniq_ints>  (141) 
3

>  <int_check>  (141) 
True

>  <ref_url>  (141) 
https://pubs.acs.org/doi/10.1021/acs.jcim.3c00276?fig=tgr1&ref=pdf

>  <submitter_name>  (141) 
Steph Wills

>  <submitter_institution>  (141) 
University of Oxford

>  <submitter_email>  (141) 
stephanie.wills@balliol.ox.ac.uk

>  <generation_date>  (141) 
2023-11-23

>  <method>  (141) 
FragNetv2

>  <original SMILES>  (141) 
Cn1ncc(CN)c1NC(=O)CC#N

>  <original_name>  (141) 
x0556_0A-x0310_0A_134_PXX

>  <ref_mols>  (141) 
x0556_0A,x0310_0A

>  <ref_pdb>  (141) 
x0310_0A

>  <rationale>  (141) 
FragNet: perfect merge incl c1cn[nH]c1,N#CCC(=O)N[Xe]

$$$$
x0556_0A-x0310_0A_17183_B1X
     RDKit          3D

 21 21  0  0  0  0  0  0  0  0999 V2000
   12.2480   16.1870   22.5000 C   0  0  0  0  0  0  0  0  0  0  0  0
   12.9590   15.3070   23.4680 C   0  0  0  0  0  0  0  0  0  0  0  0
   13.2890   14.1040   22.7260 C   0  0  2  0  0  0  0  0  0  0  0  0
   11.9670   13.4010   22.3880 C   0  0  0  0  0  0  0  0  0  0  0  0
   10.9030   13.0570   23.4500 C   0  0  0  0  0  0  0  0  0  0  0  0
   10.9350   13.4030   24.6240 O   0  0  0  0  0  0  0  0  0  0  0  0
    9.8740   12.3070   22.9320 N   0  0  0  0  0  0  0  0  0  0  0  0
    8.9410   11.6410   23.8340 C   0  0  0  0  0  0  0  0  0  0  0  0
    8.9300   10.2880   24.0620 N   0  0  0  0  0  0  0  0  0  0  0  0
    7.9570   10.0270   24.9510 N   0  0  0  0  0  0  0  0  0  0  0  0
    7.3020   11.2280   25.3280 C   0  0  0  0  0  0  0  0  0  0  0  0
    6.1520   11.2180   26.3490 C   0  0  0  0  0  0  0  0  0  0  0  0
    5.0970   11.8270   26.2030 O   0  0  0  0  0  0  0  0  0  0  0  0
    6.3910   10.5430   27.3450 O   0  0  0  0  0  0  0  0  0  0  0  0
    5.3560    9.6340   27.6960 C   0  0  0  0  0  0  0  0  0  0  0  0
    7.9320   12.2490   24.6040 C   0  0  0  0  0  0  0  0  0  0  0  0
    7.5400   13.8940   24.6710 Cl  0  0  0  0  0  0  0  0  0  0  0  0
   14.6060   13.4230   23.3220 C   0  0  0  0  0  0  0  0  0  0  0  0
   15.5120   14.5210   23.8090 C   0  0  0  0  0  0  0  0  0  0  0  0
   14.3420   12.5310   24.5230 C   0  0  0  0  0  0  0  0  0  0  0  0
   15.5000   12.7350   22.2870 C   0  0  0  0  0  0  0  0  0  0  0  0
  1  2  1  0
  3  2  1  1
  3  4  1  0
  4  5  1  0
  5  6  2  0
  5  7  1  0
  7  8  1  0
  8  9  1  0
  9 10  1  0
 10 11  2  0
 11 12  1  0
 12 13  2  0
 12 14  1  0
 14 15  1  0
 11 16  1  0
 16 17  1  0
  3 18  1  0
 18 19  1  0
 18 20  1  0
 18 21  1  0
 16  8  2  0
A    1
 C1 
A    2
 C2 
A    3
 C3 
A    4
 C4 
A    5
 C5 
A    6
 O1 
A    7
 N1 
A    8
 C6 
A    9
 N2 
A   10
 N3 
A   11
 C7 
A   12
 C8 
A   13
 O2 
A   14
 O3 
A   15
 C9 
A   16
 C10
A   17
CL1 
A   18
 C11
A   19
 C12
A   20
 C13
A   21
 C14
M  END
>  <similarity>  (142) 
1.0

>  <smiles>  (142) 
CCC(CC(=O)Nc1[nH]nc(C(=O)OC)c1Cl)C(C)(C)C

>  <cmpd_id>  (142) 
ENAMINE:Z3582351195

>  <used_subnode>  (142) 
c1cn[nH]c1

>  <used_synthon>  (142) 
CCC(CC(=O)N[Xe])C(C)(C)C

>  <ref_subnode>  (142) 
c1cn[nH]c1

>  <ref_synthon>  (142) 
N#CCC(=O)N[Xe]

>  <fragmentA>  (142) 
x0556_0A

>  <fragmentB>  (142) 
x0310_0A

>  <HA>  (142) 
21

>  <HBD>  (142) 
2

>  <HBA>  (142) 
4

>  <MW>  (142) 
315.134969244

>  <TPSA>  (142) 
84.08

>  <LogP>  (142) 
3.250600000000002

>  <RBs>  (142) 
5

>  <G_bound>  (142) 
-8.109965805343357

>  <G_unbound>  (142) 
0.6339597578284701

>  <deltaG>  (142) 
-8.743925563171828

>  <comRMSD>  (142) 
0.6671077998362767

>  <UFFGibbs>  (142) 
232.43255969903575

>  <strain_per_HA>  (142) 
11.068217128525513

>  <substructure_overlap_check>  (142) 
True

>  <energy_ratio_check>  (142) 
True

>  <const_energy/unconst_energy>  (142) 
1.01012991299978

>  <sucos>  (142) 
0.563679652302393

>  <interactions>  (142) 
HBDonor_SER-125,Hydrophobic_TYR-90,Hydrophobic_HIS-21,Hydrophobic_PRO-107,Hydrophobic_ASN-19,Hydrophobic_LEU-22,Hydrophobic_CYS-110,Hydrophobic_TYR-89

>  <total_num_ints>  (142) 
8

>  <total_num_ints_nonhyd>  (142) 
1

>  <num_uniq_frag_ints>  (142) 
1

>  <num_repl_uniq_ints>  (142) 
1

>  <num_uniq_ints_lost>  (142) 
0

>  <num_new_uniq_ints>  (142) 
7

>  <int_check>  (142) 
True

>  <ref_url>  (142) 
https://pubs.acs.org/doi/10.1021/acs.jcim.3c00276?fig=tgr1&ref=pdf

>  <submitter_name>  (142) 
Steph Wills

>  <submitter_institution>  (142) 
University of Oxford

>  <submitter_email>  (142) 
stephanie.wills@balliol.ox.ac.uk

>  <generation_date>  (142) 
2023-11-23

>  <method>  (142) 
FragNetv2

>  <original SMILES>  (142) 
CCC(CC(=O)Nc1[nH]nc(C(=O)OC)c1Cl)C(C)(C)C

>  <original_name>  (142) 
x0556_0A-x0310_0A_17183_B1X

>  <ref_mols>  (142) 
x0556_0A,x0310_0A

>  <ref_pdb>  (142) 
x0310_0A

>  <rationale>  (142) 
FragNet: 1 round bioisosteric merging incl c1cn[nH]c1 and CCC(CC(=O)N[Xe])C(C)(C)C replacing N#CCC(=O)N[Xe]

$$$$
x0556_0A-x0310_0A_21260_B1X
     RDKit          3D

 14 14  0  0  0  0  0  0  0  0999 V2000
    9.8440    9.4650   23.0810 C   0  0  0  0  0  0  0  0  0  0  0  0
    8.9800   10.3220   23.8580 N   0  0  0  0  0  0  0  0  0  0  0  0
    8.0720    9.7940   24.7490 N   0  0  0  0  0  0  0  0  0  0  0  0
    7.4440   10.8540   25.2830 C   0  0  0  0  0  0  0  0  0  0  0  0
    6.0850   10.8240   26.5760 Br  0  0  0  0  0  0  0  0  0  0  0  0
    8.0070   12.0950   24.6770 C   0  0  0  0  0  0  0  0  0  0  0  0
    8.9750   11.7830   23.7840 C   0  0  0  0  0  0  0  0  0  0  0  0
    9.7850   12.5440   22.9880 N   0  0  0  0  0  0  0  0  0  0  0  0
   10.4060   13.7140   23.5540 C   0  0  0  0  0  0  0  0  0  0  0  0
   10.2300   14.1140   24.6950 O   0  0  0  0  0  0  0  0  0  0  0  0
   11.3550   14.4000   22.6030 C   0  0  0  0  0  0  0  0  0  0  0  0
   12.0770   15.7400   22.7980 C   0  0  0  0  0  0  0  0  0  0  0  0
   12.4760   13.4210   22.6560 C   0  0  0  0  0  0  0  0  0  0  0  0
   10.6610   14.4300   21.2150 C   0  0  0  0  0  0  0  0  0  0  0  0
  1  2  1  0
  2  3  1  0
  3  4  2  0
  4  5  1  0
  4  6  1  0
  6  7  2  0
  7  8  1  0
  8  9  1  0
  9 10  2  0
  9 11  1  0
 11 12  1  0
 11 13  1  0
 11 14  1  0
  7  2  1  0
A    1
 C1 
A    2
 N1 
A    3
 N2 
A    4
 C2 
A    5
BR1 
A    6
 C3 
A    7
 C4 
A    8
 N3 
A    9
 C5 
A   10
 O1 
A   11
 C6 
A   12
 C7 
A   13
 C8 
A   14
 C9 
M  END
>  <similarity>  (143) 
1.0

>  <smiles>  (143) 
Cn1nc(Br)cc1NC(=O)C(C)(C)C

>  <cmpd_id>  (143) 
ENAMINE:Z2227508092

>  <used_subnode>  (143) 
c1cn[nH]c1

>  <used_synthon>  (143) 
CC(C)(C)C(=O)N[Xe]

>  <ref_subnode>  (143) 
c1cn[nH]c1

>  <ref_synthon>  (143) 
N#CCC(=O)N[Xe]

>  <fragmentA>  (143) 
x0556_0A

>  <fragmentB>  (143) 
x0310_0A

>  <HA>  (143) 
14

>  <HBD>  (143) 
1

>  <HBA>  (143) 
3

>  <MW>  (143) 
259.032024168

>  <TPSA>  (143) 
46.92

>  <LogP>  (143) 
2.1672000000000002

>  <RBs>  (143) 
1

>  <G_bound>  (143) 
-11.007823252362853

>  <G_unbound>  (143) 
-0.1978487987278134

>  <deltaG>  (143) 
-10.80997445363504

>  <comRMSD>  (143) 
0.6295029641264495

>  <UFFGibbs>  (143) 
127.33722048735618

>  <strain_per_HA>  (143) 
9.09551574909687

>  <substructure_overlap_check>  (143) 
True

>  <energy_ratio_check>  (143) 
True

>  <const_energy/unconst_energy>  (143) 
0.999999999952684

>  <sucos>  (143) 
0.5638970089050765

>  <interactions>  (143) 
HBDonor_SER-125,Hydrophobic_TYR-90,Hydrophobic_HIS-21,Hydrophobic_PRO-107,Hydrophobic_TYR-89

>  <total_num_ints>  (143) 
5

>  <total_num_ints_nonhyd>  (143) 
1

>  <num_uniq_frag_ints>  (143) 
1

>  <num_repl_uniq_ints>  (143) 
1

>  <num_uniq_ints_lost>  (143) 
0

>  <num_new_uniq_ints>  (143) 
4

>  <int_check>  (143) 
True

>  <ref_url>  (143) 
https://pubs.acs.org/doi/10.1021/acs.jcim.3c00276?fig=tgr1&ref=pdf

>  <submitter_name>  (143) 
Steph Wills

>  <submitter_institution>  (143) 
University of Oxford

>  <submitter_email>  (143) 
stephanie.wills@balliol.ox.ac.uk

>  <generation_date>  (143) 
2023-11-23

>  <method>  (143) 
FragNetv2

>  <original SMILES>  (143) 
Cn1nc(Br)cc1NC(=O)C(C)(C)C

>  <original_name>  (143) 
x0556_0A-x0310_0A_21260_B1X

>  <ref_mols>  (143) 
x0556_0A,x0310_0A

>  <ref_pdb>  (143) 
x0310_0A

>  <rationale>  (143) 
FragNet: 1 round bioisosteric merging incl c1cn[nH]c1 and CC(C)(C)C(=O)N[Xe] replacing N#CCC(=O)N[Xe]

$$$$
x0556_0A-x0310_0A_39601_B1X_rgrp-0
     RDKit          3D

 15 15  0  0  0  0  0  0  0  0999 V2000
    6.7010   10.9600   26.0180 C   0  0  0  0  0  0  0  0  0  0  0  0
    7.7830   10.9290   24.9850 C   0  0  0  0  0  0  0  0  0  0  0  0
    8.3320   12.0260   24.4110 C   0  0  0  0  0  0  0  0  0  0  0  0
    9.2790   11.6110   23.5090 C   0  0  0  0  0  0  0  0  0  0  0  0
   10.0680   12.3850   22.7030 N   0  0  0  0  0  0  0  0  0  0  0  0
   10.9410   13.3430   23.1020 C   0  0  0  0  0  0  0  0  0  0  0  0
   11.3080   13.5300   24.2590 O   0  0  0  0  0  0  0  0  0  0  0  0
   11.4140   14.1780   21.9210 C   0  0  0  0  0  0  0  0  0  0  0  0
   10.5010   14.4190   20.7490 C   0  0  0  0  0  0  0  0  0  0  0  0
   12.7660   13.7480   21.4100 C   0  0  0  0  0  0  0  0  0  0  0  0
   11.7120   15.4580   22.4250 C   0  0  0  0  0  0  0  0  0  0  0  0
   11.9750   16.7680   22.8280 N   0  0  0  0  0  0  0  0  0  0  0  0
    9.2230   10.2240   23.6190 N   0  0  0  0  0  0  0  0  0  0  0  0
   10.0050    9.2610   22.8850 C   0  0  0  0  0  0  0  0  0  0  0  0
    8.3050    9.7730   24.5300 N   0  0  0  0  0  0  0  0  0  0  0  0
  1  2  1  0
  2  3  1  0
  3  4  2  0
  4  5  1  0
  5  6  1  0
  6  7  2  0
  6  8  1  0
  8  9  1  0
  8 10  1  0
  8 11  1  0
 11 12  3  0
  4 13  1  0
 13 14  1  0
 13 15  1  0
 15  2  2  0
A    1
 C1 
A    2
 C2 
A    3
 C3 
A    4
 C4 
A    5
 N1 
A    6
 C5 
A    7
 O1 
A    8
 C6 
A    9
 C7 
A   10
 C8 
A   11
 C9 
A   12
 N2 
A   13
 N3 
A   14
 C10
A   15
 N4 
M  END
>  <similarity>  (144) 
1.0

>  <smiles>  (144) 
Cc1cc(NC(=O)C(C)(C)C#N)n(C)n1

>  <cmpd_id>  (144) 
ENAMINE:Z736691796,CHEMSPACE-BB:CSMB00011406729

>  <used_subnode>  (144) 
c1cn[nH]c1

>  <used_synthon>  (144) 
CC(C)(C#N)C(=O)N[Xe]

>  <ref_subnode>  (144) 
c1cn[nH]c1

>  <ref_synthon>  (144) 
N#CCC(=O)N[Xe]

>  <fragmentA>  (144) 
x0556_0A

>  <fragmentB>  (144) 
x0310_0A

>  <HA>  (144) 
15

>  <HBD>  (144) 
1

>  <HBA>  (144) 
4

>  <MW>  (144) 
206.116761068

>  <TPSA>  (144) 
70.71000000000001

>  <LogP>  (144) 
1.2167999999999999

>  <RBs>  (144) 
2

>  <G_bound>  (144) 
-9.675658199498908

>  <G_unbound>  (144) 
0.20227865836031247

>  <deltaG>  (144) 
-9.87793685785922

>  <comRMSD>  (144) 
0.30566508037207635

>  <substructure_overlap_check>  (144) 
True

>  <energy_ratio_check>  (144) 
True

>  <const_energy/unconst_energy>  (144) 
3.133303938643477

>  <sucos>  (144) 
0.5641038925014169

>  <interactions>  (144) 
Hydrophobic_PRO-107,Hydrophobic_HIS-21,HBDonor_SER-125,Hydrophobic_TYR-90,Hydrophobic_THR-126

>  <total_num_ints>  (144) 
5

>  <total_num_ints_nonhyd>  (144) 
1

>  <num_uniq_frag_ints>  (144) 
1

>  <num_repl_uniq_ints>  (144) 
1

>  <num_uniq_ints_lost>  (144) 
0

>  <num_new_uniq_ints>  (144) 
4

>  <int_check>  (144) 
True

>  <ref_url>  (144) 
https://pubs.acs.org/doi/10.1021/acs.jcim.3c00276?fig=tgr1&ref=pdf

>  <submitter_name>  (144) 
Steph Wills

>  <submitter_institution>  (144) 
University of Oxford

>  <submitter_email>  (144) 
stephanie.wills@balliol.ox.ac.uk

>  <generation_date>  (144) 
2023-11-23

>  <method>  (144) 
FragNetv2

>  <original SMILES>  (144) 
Cc1cc(NC(=O)C(C)(C)C#N)n(C)n1

>  <original_name>  (144) 
x0556_0A-x0310_0A_39601_B1X_rgrp-0

>  <ref_mols>  (144) 
x0556_0A,x0310_0A

>  <ref_pdb>  (144) 
x0310_0A

>  <rationale>  (144) 
FragNet: 1 round bioisosteric merging incl c1cn[nH]c1 and CC(C)(C#N)C(=O)N[Xe] replacing N#CCC(=O)N[Xe]

$$$$
x0556_0A-x0310_0A_26-0_B2S_rgrp-0
     RDKit          3D

 16 16  0  0  0  0  0  0  0  0999 V2000
   12.1570   16.0660   22.5030 C   0  0  0  0  0  0  0  0  0  0  0  0
   12.8210   14.7870   22.7640 C   0  0  2  0  0  0  0  0  0  0  0  0
   11.8380   13.7450   22.2230 C   0  0  0  0  0  0  0  0  0  0  0  0
   10.7590   13.3500   23.2280 C   0  0  0  0  0  0  0  0  0  0  0  0
   10.5240   13.9770   24.2480 O   0  0  0  0  0  0  0  0  0  0  0  0
   10.1030   12.2210   22.8350 N   0  0  0  0  0  0  0  0  0  0  0  0
    9.2390   11.5080   23.6320 C   0  0  0  0  0  0  0  0  0  0  0  0
    8.2640   12.0710   24.4320 C   0  0  0  0  0  0  0  0  0  0  0  0
    7.6050   10.8910   25.0900 C   0  0  0  0  0  0  0  0  0  0  0  0
    8.1710    9.7660   24.6850 N   0  0  0  0  0  0  0  0  0  0  0  0
    9.1470   10.1470   23.8150 N   0  0  0  0  0  0  0  0  0  0  0  0
    9.9430    9.1100   23.2090 C   0  0  0  0  0  0  0  0  0  0  0  0
   13.2860   14.4730   24.2530 C   0  0  0  0  0  0  0  0  0  0  0  0
   12.2350   14.9160   25.3010 C   0  0  0  0  0  0  0  0  0  0  0  0
   14.6790   14.9890   24.6560 C   0  0  0  0  0  0  0  0  0  0  0  0
   13.4450   12.9670   24.3940 C   0  0  0  0  0  0  0  0  0  0  0  0
  2  1  1  1
  2  3  1  0
  3  4  1  0
  4  5  2  0
  4  6  1  0
  6  7  1  0
  7  8  2  0
  8  9  1  0
  9 10  2  0
 10 11  1  0
 11 12  1  0
  2 13  1  0
 13 14  1  0
 13 15  1  0
 13 16  1  0
 11  7  1  0
A    1
 C1 
A    2
 C2 
A    3
 C3 
A    4
 C4 
A    5
 O1 
A    6
 N1 
A    7
 C5 
A    8
 C6 
A    9
 C7 
A   10
 N2 
A   11
 N3 
A   12
 C8 
A   13
 C9 
A   14
 C10
A   15
 C11
A   16
 C12
M  END
>  <similarity>  (145) 
1.0

>  <smiles>  (145) 
CC(CC(=O)Nc1ccnn1C)C(C)(C)C

>  <cmpd_id>  (145) 
ENAMINE:Z1158011541

>  <used_subnode>  (145) 
[Xe]c1cn[nH]c1

>  <used_synthon>  (145) 
CC(CC(=O)N[Xe])C(C)(C)C

>  <ref_subnode>  (145) 
[Xe]c1cn[nH]c1

>  <ref_synthon>  (145) 
N#CCC(=O)N[Xe]

>  <fragmentA>  (145) 
x0556_0A

>  <fragmentB>  (145) 
x0310_0A

>  <rev_synthon>  (145) 
[Xe]c1ccn[nH]1

>  <intermed_node1>  (145) 
CC(CC(N)=O)C(C)(C)C

>  <HA>  (145) 
16

>  <HBD>  (145) 
1

>  <HBA>  (145) 
3

>  <MW>  (145) 
223.168462292

>  <TPSA>  (145) 
46.92

>  <LogP>  (145) 
2.4309000000000003

>  <RBs>  (145) 
3

>  <G_bound>  (145) 
-11.924618296356941

>  <G_unbound>  (145) 
0.288872856635077

>  <deltaG>  (145) 
-12.213491152992018

>  <comRMSD>  (145) 
0.178412657384007

>  <substructure_overlap_check>  (145) 
True

>  <energy_ratio_check>  (145) 
True

>  <const_energy/unconst_energy>  (145) 
6.153089639024016

>  <sucos>  (145) 
0.5649952473540967

>  <interactions>  (145) 
Hydrophobic_PRO-107,HBDonor_SER-125,Hydrophobic_TYR-90,Hydrophobic_GLU-88,Hydrophobic_TYR-89,Hydrophobic_HIS-21

>  <total_num_ints>  (145) 
6

>  <total_num_ints_nonhyd>  (145) 
1

>  <num_uniq_frag_ints>  (145) 
1

>  <num_repl_uniq_ints>  (145) 
1

>  <num_uniq_ints_lost>  (145) 
0

>  <num_new_uniq_ints>  (145) 
5

>  <int_check>  (145) 
True

>  <ref_url>  (145) 
https://pubs.acs.org/doi/10.1021/acs.jcim.3c00276?fig=tgr1&ref=pdf

>  <submitter_name>  (145) 
Steph Wills

>  <submitter_institution>  (145) 
University of Oxford

>  <submitter_email>  (145) 
stephanie.wills@balliol.ox.ac.uk

>  <generation_date>  (145) 
2023-11-23

>  <method>  (145) 
FragNetv2

>  <original SMILES>  (145) 
CC(CC(=O)Nc1ccnn1C)C(C)(C)C

>  <original_name>  (145) 
x0556_0A-x0310_0A_26-0_B2S_rgrp-0

>  <ref_mols>  (145) 
x0556_0A,x0310_0A

>  <ref_pdb>  (145) 
x0310_0A

>  <rationale>  (145) 
FragNet: 2 rounds bioisosteric merging (no change in linker) incl [Xe]c1ccn[nH]1 replacing [Xe]c1cn[nH]c1 and CC(CC(=O)N[Xe])C(C)(C)C replacing N#CCC(=O)N[Xe]

$$$$
x0556_0A-x0310_0A_46468_B1X_rgrp-0
     RDKit          3D

 17 17  0  0  0  0  0  0  0  0999 V2000
   10.0330    9.3150   22.9240 C   0  0  0  0  0  0  0  0  0  0  0  0
    9.1880   10.1840   23.7050 N   0  0  0  0  0  0  0  0  0  0  0  0
    8.2600    9.5850   24.5070 N   0  0  0  0  0  0  0  0  0  0  0  0
    7.6410   10.5990   25.0760 C   0  0  0  0  0  0  0  0  0  0  0  0
    8.1970   11.9210   24.6210 C   0  0  0  0  0  0  0  0  0  0  0  0
    7.6180   13.2240   25.1570 C   0  0  0  0  0  0  0  0  0  0  0  0
    7.1550   14.2220   25.5250 N   0  0  0  0  0  0  0  0  0  0  0  0
    9.2040   11.5780   23.7360 C   0  0  0  0  0  0  0  0  0  0  0  0
   10.0340   12.4510   23.0470 N   0  0  0  0  0  0  0  0  0  0  0  0
   10.8410   13.3420   23.7240 C   0  0  0  0  0  0  0  0  0  0  0  0
   10.5300   13.9480   24.7430 O   0  0  0  0  0  0  0  0  0  0  0  0
   12.1540   13.4980   23.1110 C   0  0  0  0  0  0  0  0  0  0  0  0
   12.5030   14.8440   23.2770 C   0  0  0  0  0  0  0  0  0  0  0  0
   12.2290   15.4720   21.9270 C   0  0  0  0  0  0  0  0  0  0  0  0
   13.3190   15.3720   21.1190 F   0  0  0  0  0  0  0  0  0  0  0  0
   11.1920   14.8800   21.2750 F   0  0  0  0  0  0  0  0  0  0  0  0
   11.9240   16.7720   22.0530 F   0  0  0  0  0  0  0  0  0  0  0  0
  1  2  1  0
  2  3  1  0
  3  4  2  0
  4  5  1  0
  5  6  1  0
  6  7  3  0
  5  8  2  0
  8  9  1  0
  9 10  1  0
 10 11  2  0
 10 12  1  0
 12 13  1  0
 13 14  1  0
 14 15  1  0
 14 16  1  0
 14 17  1  0
  8  2  1  0
A    1
 C1 
A    2
 N1 
A    3
 N2 
A    4
 C2 
A    5
 C3 
A    6
 C4 
A    7
 N3 
A    8
 C5 
A    9
 N4 
A   10
 C6 
A   11
 O1 
A   12
 C7 
A   13
 C8 
A   14
 C9 
A   15
 F1 
A   16
 F2 
A   17
 F3 
M  END
>  <similarity>  (146) 
1.0

>  <smiles>  (146) 
Cn1ncc(C#N)c1NC(=O)CCC(F)(F)F

>  <cmpd_id>  (146) 
ENAMINE:Z3236857447

>  <used_subnode>  (146) 
c1cn[nH]c1

>  <used_synthon>  (146) 
O=C(CCC(F)(F)F)N[Xe]

>  <ref_subnode>  (146) 
c1cn[nH]c1

>  <ref_synthon>  (146) 
N#CCC(=O)N[Xe]

>  <fragmentA>  (146) 
x0556_0A

>  <fragmentB>  (146) 
x0310_0A

>  <HA>  (146) 
17

>  <HBD>  (146) 
1

>  <HBA>  (146) 
4

>  <MW>  (146) 
246.072845568

>  <TPSA>  (146) 
70.71000000000001

>  <LogP>  (146) 
1.5727799999999998

>  <RBs>  (146) 
3

>  <G_bound>  (146) 
-5.454028752339054

>  <G_unbound>  (146) 
0.7271246203790244

>  <deltaG>  (146) 
-6.181153372718079

>  <comRMSD>  (146) 
0.20825415935263605

>  <substructure_overlap_check>  (146) 
True

>  <energy_ratio_check>  (146) 
True

>  <const_energy/unconst_energy>  (146) 
2.5014785878057

>  <sucos>  (146) 
0.5659669657699417

>  <interactions>  (146) 
Hydrophobic_PRO-107,Hydrophobic_HIS-21,Hydrophobic_TYR-89,HBDonor_SER-125

>  <total_num_ints>  (146) 
4

>  <total_num_ints_nonhyd>  (146) 
1

>  <num_uniq_frag_ints>  (146) 
1

>  <num_repl_uniq_ints>  (146) 
1

>  <num_uniq_ints_lost>  (146) 
0

>  <num_new_uniq_ints>  (146) 
3

>  <int_check>  (146) 
True

>  <ref_url>  (146) 
https://pubs.acs.org/doi/10.1021/acs.jcim.3c00276?fig=tgr1&ref=pdf

>  <submitter_name>  (146) 
Steph Wills

>  <submitter_institution>  (146) 
University of Oxford

>  <submitter_email>  (146) 
stephanie.wills@balliol.ox.ac.uk

>  <generation_date>  (146) 
2023-11-23

>  <method>  (146) 
FragNetv2

>  <original SMILES>  (146) 
Cn1ncc(C#N)c1NC(=O)CCC(F)(F)F

>  <original_name>  (146) 
x0556_0A-x0310_0A_46468_B1X_rgrp-0

>  <ref_mols>  (146) 
x0556_0A,x0310_0A

>  <ref_pdb>  (146) 
x0310_0A

>  <rationale>  (146) 
FragNet: 1 round bioisosteric merging incl c1cn[nH]c1 and O=C(CCC(F)(F)F)N[Xe] replacing N#CCC(=O)N[Xe]

$$$$
x0556_0A-x0310_0A_30256_B1X
     RDKit          3D

 19 19  0  0  0  0  0  0  0  0999 V2000
   11.9370   13.6690   22.6810 C   0  0  0  0  0  0  0  0  0  0  0  0
   10.7750   13.3090   23.5550 C   0  0  0  0  0  0  0  0  0  0  0  0
   10.9160   13.8490   24.8640 O   0  0  0  0  0  0  0  0  0  0  0  0
    9.7440   12.5480   23.0340 N   0  0  0  0  0  0  0  0  0  0  0  0
    8.9100   11.8060   23.8570 C   0  0  0  0  0  0  0  0  0  0  0  0
    8.9360   10.4490   24.0190 N   0  0  0  0  0  0  0  0  0  0  0  0
    7.9970    9.9950   24.8950 N   0  0  0  0  0  0  0  0  0  0  0  0
    7.3610   11.0930   25.3000 C   0  0  0  0  0  0  0  0  0  0  0  0
    6.2100   11.0370   26.3120 C   0  0  0  0  0  0  0  0  0  0  0  0
    6.0660   10.1370   27.1320 O   0  0  0  0  0  0  0  0  0  0  0  0
    5.3340   12.1050   26.2420 N   0  0  0  0  0  0  0  0  0  0  0  0
    4.5090   12.5040   27.3570 C   0  0  0  0  0  0  0  0  0  0  0  0
    3.9200   11.2820   28.1030 C   0  0  0  0  0  0  0  0  0  0  0  0
    3.3180   13.3420   26.8530 C   0  0  0  0  0  0  0  0  0  0  0  0
    5.3480   13.3510   28.3320 C   0  0  0  0  0  0  0  0  0  0  0  0
    4.8420   13.4470   29.6400 C   0  0  0  0  0  0  0  0  0  0  0  0
    6.8090   12.8590   28.4650 C   0  0  0  0  0  0  0  0  0  0  0  0
    7.9000   12.2330   24.6750 C   0  0  0  0  0  0  0  0  0  0  0  0
    7.3450   14.0020   24.9150 Br  0  0  0  0  0  0  0  0  0  0  0  0
  1  2  1  0
  2  3  2  0
  2  4  1  0
  4  5  1  0
  5  6  1  0
  6  7  1  0
  7  8  2  0
  8  9  1  0
  9 10  2  0
  9 11  1  0
 11 12  1  0
 12 13  1  0
 12 14  1  0
 12 15  1  0
 15 16  1  0
 15 17  1  0
  8 18  1  0
 18 19  1  0
 18  5  2  0
A    1
 C1 
A    2
 C2 
A    3
 O1 
A    4
 N1 
A    5
 C3 
A    6
 N2 
A    7
 N3 
A    8
 C4 
A    9
 C5 
A   10
 O2 
A   11
 N4 
A   12
 C6 
A   13
 C7 
A   14
 C8 
A   15
 C9 
A   16
 C10
A   17
 C11
A   18
 C12
A   19
BR1 
M  END
>  <similarity>  (147) 
1.0

>  <smiles>  (147) 
CC(=O)Nc1[nH]nc(C(=O)NC(C)(C)C(C)C)c1Br

>  <cmpd_id>  (147) 
ENAMINE:Z4318970994

>  <used_subnode>  (147) 
c1cn[nH]c1

>  <used_synthon>  (147) 
CC(=O)N[Xe]

>  <ref_subnode>  (147) 
c1cn[nH]c1

>  <ref_synthon>  (147) 
N#CCC(=O)N[Xe]

>  <fragmentA>  (147) 
x0556_0A

>  <fragmentB>  (147) 
x0310_0A

>  <HA>  (147) 
19

>  <HBD>  (147) 
3

>  <HBA>  (147) 
3

>  <MW>  (147) 
330.069137948

>  <TPSA>  (147) 
86.88

>  <LogP>  (147) 
2.294999999999999

>  <RBs>  (147) 
4

>  <G_bound>  (147) 
-5.973263023440562

>  <G_unbound>  (147) 
0.6400344142939604

>  <deltaG>  (147) 
-6.613297437734522

>  <comRMSD>  (147) 
0.7683426889580062

>  <UFFGibbs>  (147) 
113.03275396852642

>  <strain_per_HA>  (147) 
5.94909231413297

>  <substructure_overlap_check>  (147) 
True

>  <energy_ratio_check>  (147) 
True

>  <const_energy/unconst_energy>  (147) 
1.0719203342649792

>  <sucos>  (147) 
0.5669431955913583

>  <interactions>  (147) 
HBDonor_GLY-127,Hydrophobic_HIS-21,Hydrophobic_PRO-107

>  <total_num_ints>  (147) 
3

>  <total_num_ints_nonhyd>  (147) 
1

>  <num_uniq_frag_ints>  (147) 
1

>  <num_repl_uniq_ints>  (147) 
1

>  <num_uniq_ints_lost>  (147) 
0

>  <num_new_uniq_ints>  (147) 
2

>  <int_check>  (147) 
True

>  <ref_url>  (147) 
https://pubs.acs.org/doi/10.1021/acs.jcim.3c00276?fig=tgr1&ref=pdf

>  <submitter_name>  (147) 
Steph Wills

>  <submitter_institution>  (147) 
University of Oxford

>  <submitter_email>  (147) 
stephanie.wills@balliol.ox.ac.uk

>  <generation_date>  (147) 
2023-11-23

>  <method>  (147) 
FragNetv2

>  <original SMILES>  (147) 
CC(=O)Nc1[nH]nc(C(=O)NC(C)(C)C(C)C)c1Br

>  <original_name>  (147) 
x0556_0A-x0310_0A_30256_B1X

>  <ref_mols>  (147) 
x0556_0A,x0310_0A

>  <ref_pdb>  (147) 
x0310_0A

>  <rationale>  (147) 
FragNet: 1 round bioisosteric merging incl c1cn[nH]c1 and CC(=O)N[Xe] replacing N#CCC(=O)N[Xe]

$$$$
x0556_0A-x0310_0A_36360_B1X_rgrp-0
     RDKit          3D

 17 17  0  0  0  0  0  0  0  0999 V2000
   10.6880    8.6960   23.2270 C   0  0  0  0  0  0  0  0  0  0  0  0
    9.4230    9.3000   22.9060 C   0  0  0  0  0  0  0  0  0  0  0  0
    8.9600   10.3130   23.7170 N   0  0  0  0  0  0  0  0  0  0  0  0
    8.0480    9.9620   24.6740 N   0  0  0  0  0  0  0  0  0  0  0  0
    7.7770   11.1180   25.2360 C   0  0  0  0  0  0  0  0  0  0  0  0
    8.4550   12.2040   24.7210 C   0  0  0  0  0  0  0  0  0  0  0  0
    8.2750   13.4970   25.1990 C   0  0  0  0  0  0  0  0  0  0  0  0
    9.2550   11.6800   23.7180 C   0  0  0  0  0  0  0  0  0  0  0  0
   10.1120   12.4120   22.9350 N   0  0  0  0  0  0  0  0  0  0  0  0
   10.9290   13.4130   23.4060 C   0  0  0  0  0  0  0  0  0  0  0  0
   11.1060   13.7340   24.5760 O   0  0  0  0  0  0  0  0  0  0  0  0
   11.6130   14.1080   22.2440 C   0  0  0  0  0  0  0  0  0  0  0  0
   10.6870   14.6310   21.4040 F   0  0  0  0  0  0  0  0  0  0  0  0
   12.3310   13.2430   21.5380 F   0  0  0  0  0  0  0  0  0  0  0  0
   12.5730   15.1830   22.6490 C   0  0  0  0  0  0  0  0  0  0  0  0
   13.1600   15.6920   21.5390 F   0  0  0  0  0  0  0  0  0  0  0  0
   11.9440   16.1940   23.2500 F   0  0  0  0  0  0  0  0  0  0  0  0
  1  2  1  0
  2  3  1  0
  3  4  1  0
  4  5  2  0
  5  6  1  0
  6  7  1  0
  6  8  2  0
  8  9  1  0
  9 10  1  0
 10 11  2  0
 10 12  1  0
 12 13  1  0
 12 14  1  0
 12 15  1  0
 15 16  1  0
 15 17  1  0
  8  3  1  0
A    1
 C1 
A    2
 C2 
A    3
 N1 
A    4
 N2 
A    5
 C3 
A    6
 C4 
A    7
 C5 
A    8
 C6 
A    9
 N3 
A   10
 C7 
A   11
 O1 
A   12
 C8 
A   13
 F1 
A   14
 F2 
A   15
 C9 
A   16
 F3 
A   17
 F4 
M  END
>  <similarity>  (148) 
1.0

>  <smiles>  (148) 
CCn1ncc(C)c1NC(=O)C(F)(F)C(F)F

>  <cmpd_id>  (148) 
ENAMINE:Z2645579547

>  <used_subnode>  (148) 
c1cn[nH]c1

>  <used_synthon>  (148) 
O=C(N[Xe])C(F)(F)C(F)F

>  <ref_subnode>  (148) 
c1cn[nH]c1

>  <ref_synthon>  (148) 
N#CCC(=O)N[Xe]

>  <fragmentA>  (148) 
x0556_0A

>  <fragmentB>  (148) 
x0310_0A

>  <HA>  (148) 
17

>  <HBD>  (148) 
1

>  <HBA>  (148) 
3

>  <MW>  (148) 
253.083824852

>  <TPSA>  (148) 
46.92

>  <LogP>  (148) 
2.0503199999999997

>  <RBs>  (148) 
4

>  <G_bound>  (148) 
-3.2489366127422636

>  <G_unbound>  (148) 
0.8025866284687683

>  <deltaG>  (148) 
-4.051523241211032

>  <comRMSD>  (148) 
0.12994813896760674

>  <substructure_overlap_check>  (148) 
True

>  <energy_ratio_check>  (148) 
True

>  <const_energy/unconst_energy>  (148) 
2.3845802853606384

>  <sucos>  (148) 
0.5673409005542165

>  <interactions>  (148) 
Hydrophobic_ASP-109,Hydrophobic_CYS-110,Hydrophobic_PRO-107,HBDonor_SER-125,Hydrophobic_VAL-124

>  <total_num_ints>  (148) 
5

>  <total_num_ints_nonhyd>  (148) 
1

>  <num_uniq_frag_ints>  (148) 
1

>  <num_repl_uniq_ints>  (148) 
1

>  <num_uniq_ints_lost>  (148) 
0

>  <num_new_uniq_ints>  (148) 
4

>  <int_check>  (148) 
True

>  <ref_url>  (148) 
https://pubs.acs.org/doi/10.1021/acs.jcim.3c00276?fig=tgr1&ref=pdf

>  <submitter_name>  (148) 
Steph Wills

>  <submitter_institution>  (148) 
University of Oxford

>  <submitter_email>  (148) 
stephanie.wills@balliol.ox.ac.uk

>  <generation_date>  (148) 
2023-11-23

>  <method>  (148) 
FragNetv2

>  <original SMILES>  (148) 
CCn1ncc(C)c1NC(=O)C(F)(F)C(F)F

>  <original_name>  (148) 
x0556_0A-x0310_0A_36360_B1X_rgrp-0

>  <ref_mols>  (148) 
x0556_0A,x0310_0A

>  <ref_pdb>  (148) 
x0310_0A

>  <rationale>  (148) 
FragNet: 1 round bioisosteric merging incl c1cn[nH]c1 and O=C(N[Xe])C(F)(F)C(F)F replacing N#CCC(=O)N[Xe]

$$$$
x0556_0A-x0310_0A_24590_B1X_rgrp-0
     RDKit          3D

 18 18  0  0  0  0  0  0  0  0999 V2000
   11.1080   14.7830   19.7730 C   0  0  0  0  0  0  0  0  0  0  0  0
   10.6600   14.2680   21.0830 C   0  0  0  0  0  0  0  0  0  0  0  0
   11.3520   14.2420   22.2780 C   0  0  0  0  0  0  0  0  0  0  0  0
   12.6610   14.8100   22.2410 C   0  0  0  0  0  0  0  0  0  0  0  0
   10.6980   13.6250   23.4700 C   0  0  0  0  0  0  0  0  0  0  0  0
   11.0020   13.9400   24.6240 O   0  0  0  0  0  0  0  0  0  0  0  0
    9.7560   12.6820   23.0300 N   0  0  0  0  0  0  0  0  0  0  0  0
    8.9540   11.8830   23.8210 C   0  0  0  0  0  0  0  0  0  0  0  0
    7.9450   12.4390   24.7630 C   0  0  0  0  0  0  0  0  0  0  0  0
    7.7180   13.9370   24.9260 C   0  0  0  0  0  0  0  0  0  0  0  0
    7.2280   11.3460   25.4850 C   0  0  0  0  0  0  0  0  0  0  0  0
    6.1160   11.4300   26.5410 C   0  0  0  0  0  0  0  0  0  0  0  0
    5.5150   10.2500   26.8350 F   0  0  0  0  0  0  0  0  0  0  0  0
    6.5700   11.9320   27.7250 F   0  0  0  0  0  0  0  0  0  0  0  0
    5.1210   12.2830   26.1680 F   0  0  0  0  0  0  0  0  0  0  0  0
    7.8530   10.1290   24.9270 N   0  0  0  0  0  0  0  0  0  0  0  0
    8.8140   10.5210   23.9900 N   0  0  0  0  0  0  0  0  0  0  0  0
    9.5260    9.5490   23.3110 C   0  0  0  0  0  0  0  0  0  0  0  0
  1  2  1  0
  2  3  2  3
  3  4  1  0
  3  5  1  0
  5  6  2  0
  5  7  1  0
  7  8  1  0
  8  9  2  0
  9 10  1  0
  9 11  1  0
 11 12  1  0
 12 13  1  0
 12 14  1  0
 12 15  1  0
 11 16  2  0
 16 17  1  0
 17 18  1  0
 17  8  1  0
A    1
 C1 
A    2
 C2 
A    3
 C3 
A    4
 C4 
A    5
 C5 
A    6
 O1 
A    7
 N1 
A    8
 C6 
A    9
 C7 
A   10
 C8 
A   11
 C9 
A   12
 C10
A   13
 F1 
A   14
 F2 
A   15
 F3 
A   16
 N2 
A   17
 N3 
A   18
 C11
M  END
>  <similarity>  (149) 
1.0

>  <smiles>  (149) 
CC=C(C)C(=O)Nc1c(C)c(C(F)(F)F)nn1C

>  <cmpd_id>  (149) 
ENAMINE:Z1689696751

>  <used_subnode>  (149) 
c1cn[nH]c1

>  <used_synthon>  (149) 
CC=C(C)C(=O)N[Xe]

>  <ref_subnode>  (149) 
c1cn[nH]c1

>  <ref_synthon>  (149) 
N#CCC(=O)N[Xe]

>  <fragmentA>  (149) 
x0556_0A

>  <fragmentB>  (149) 
x0310_0A

>  <HA>  (149) 
18

>  <HBD>  (149) 
1

>  <HBA>  (149) 
3

>  <MW>  (149) 
261.108896728

>  <TPSA>  (149) 
46.92

>  <LogP>  (149) 
2.6520200000000003

>  <RBs>  (149) 
2

>  <G_bound>  (149) 
-9.932875396193904

>  <G_unbound>  (149) 
0.17670716980422846

>  <deltaG>  (149) 
-10.109582565998132

>  <comRMSD>  (149) 
0.2325635373213842

>  <substructure_overlap_check>  (149) 
True

>  <energy_ratio_check>  (149) 
True

>  <const_energy/unconst_energy>  (149) 
2.633241231332778

>  <sucos>  (149) 
0.5681386210134659

>  <interactions>  (149) 
Hydrophobic_PRO-107,Hydrophobic_HIS-21,Hydrophobic_TYR-89,HBDonor_SER-125,Hydrophobic_TYR-90,Hydrophobic_THR-126

>  <total_num_ints>  (149) 
6

>  <total_num_ints_nonhyd>  (149) 
1

>  <num_uniq_frag_ints>  (149) 
1

>  <num_repl_uniq_ints>  (149) 
1

>  <num_uniq_ints_lost>  (149) 
0

>  <num_new_uniq_ints>  (149) 
5

>  <int_check>  (149) 
True

>  <ref_url>  (149) 
https://pubs.acs.org/doi/10.1021/acs.jcim.3c00276?fig=tgr1&ref=pdf

>  <submitter_name>  (149) 
Steph Wills

>  <submitter_institution>  (149) 
University of Oxford

>  <submitter_email>  (149) 
stephanie.wills@balliol.ox.ac.uk

>  <generation_date>  (149) 
2023-11-23

>  <method>  (149) 
FragNetv2

>  <original SMILES>  (149) 
CC=C(C)C(=O)Nc1c(C)c(C(F)(F)F)nn1C

>  <original_name>  (149) 
x0556_0A-x0310_0A_24590_B1X_rgrp-0

>  <ref_mols>  (149) 
x0556_0A,x0310_0A

>  <ref_pdb>  (149) 
x0310_0A

>  <rationale>  (149) 
FragNet: 1 round bioisosteric merging incl c1cn[nH]c1 and CC=C(C)C(=O)N[Xe] replacing N#CCC(=O)N[Xe]

$$$$
x0556_0A-x0310_0A_36822_B1X
     RDKit          3D

 18 18  0  0  0  0  0  0  0  0999 V2000
    9.9310    9.2600   22.3550 C   0  0  0  0  0  0  0  0  0  0  0  0
    9.5580    9.3280   23.8010 C   0  0  0  0  0  0  0  0  0  0  0  0
    8.7620   10.4340   24.2520 N   0  0  0  0  0  0  0  0  0  0  0  0
    7.7870   10.2710   25.2210 N   0  0  0  0  0  0  0  0  0  0  0  0
    7.2950   11.5170   25.4080 C   0  0  0  0  0  0  0  0  0  0  0  0
    6.1950   11.7080   26.4690 C   0  0  0  0  0  0  0  0  0  0  0  0
    6.6580   12.2910   27.8100 C   0  0  0  0  0  0  0  0  0  0  0  0
    5.1030   12.7160   26.0270 C   0  0  0  0  0  0  0  0  0  0  0  0
    5.5990   10.3130   26.7760 C   0  0  0  0  0  0  0  0  0  0  0  0
    7.9350   12.4330   24.5530 C   0  0  0  0  0  0  0  0  0  0  0  0
    8.8710   11.6870   23.8390 C   0  0  0  0  0  0  0  0  0  0  0  0
    9.7680   12.2350   22.8800 N   0  0  0  0  0  0  0  0  0  0  0  0
   10.7760   12.9740   23.2860 C   0  0  0  0  0  0  0  0  0  0  0  0
   11.0770   13.1590   24.4570 O   0  0  0  0  0  0  0  0  0  0  0  0
   11.5530   13.6570   22.3650 C   0  0  0  0  0  0  0  0  0  0  0  0
   12.1770   14.8470   22.5370 C   0  0  0  0  0  0  0  0  0  0  0  0
   12.1330   15.5870   23.7700 C   0  0  0  0  0  0  0  0  0  0  0  0
   13.0670   15.5990   21.3270 Cl  0  0  0  0  0  0  0  0  0  0  0  0
  1  2  1  0
  2  3  1  0
  3  4  1  0
  4  5  2  0
  5  6  1  0
  6  7  1  0
  6  8  1  0
  6  9  1  0
  5 10  1  0
 10 11  2  0
 11 12  1  0
 12 13  1  0
 13 14  2  0
 13 15  1  0
 15 16  2  3
 16 17  1  0
 16 18  1  0
 11  3  1  0
A    1
 C1 
A    2
 C2 
A    3
 N1 
A    4
 N2 
A    5
 C3 
A    6
 C4 
A    7
 C5 
A    8
 C6 
A    9
 C7 
A   10
 C8 
A   11
 C9 
A   12
 N3 
A   13
 C10
A   14
 O1 
A   15
 C11
A   16
 C12
A   17
 C13
A   18
CL1 
M  END
>  <similarity>  (150) 
1.0

>  <smiles>  (150) 
CCn1nc(C(C)(C)C)cc1NC(=O)C=C(C)Cl

>  <cmpd_id>  (150) 
ENAMINE:Z3608269095

>  <used_subnode>  (150) 
c1cn[nH]c1

>  <used_synthon>  (150) 
CC(Cl)=CC(=O)N[Xe]

>  <ref_subnode>  (150) 
c1cn[nH]c1

>  <ref_synthon>  (150) 
N#CCC(=O)N[Xe]

>  <fragmentA>  (150) 
x0556_0A

>  <fragmentB>  (150) 
x0310_0A

>  <HA>  (150) 
18

>  <HBD>  (150) 
1

>  <HBA>  (150) 
3

>  <MW>  (150) 
269.12948994

>  <TPSA>  (150) 
46.92

>  <LogP>  (150) 
3.281600000000002

>  <RBs>  (150) 
3

>  <G_bound>  (150) 
-6.589346383569531

>  <G_unbound>  (150) 
0.43150692156101644

>  <deltaG>  (150) 
-7.020853305130547

>  <comRMSD>  (150) 
0.505449891776139

>  <UFFGibbs>  (150) 
172.28291724886208

>  <strain_per_HA>  (150) 
9.571273180492337

>  <substructure_overlap_check>  (150) 
True

>  <energy_ratio_check>  (150) 
True

>  <const_energy/unconst_energy>  (150) 
0.9770936847058308

>  <sucos>  (150) 
0.5688477489351471

>  <interactions>  (150) 
HBDonor_SER-125,Hydrophobic_HIS-21,Hydrophobic_PRO-107,Hydrophobic_VAL-124,Hydrophobic_TYR-89

>  <total_num_ints>  (150) 
5

>  <total_num_ints_nonhyd>  (150) 
1

>  <num_uniq_frag_ints>  (150) 
1

>  <num_repl_uniq_ints>  (150) 
1

>  <num_uniq_ints_lost>  (150) 
0

>  <num_new_uniq_ints>  (150) 
4

>  <int_check>  (150) 
True

>  <ref_url>  (150) 
https://pubs.acs.org/doi/10.1021/acs.jcim.3c00276?fig=tgr1&ref=pdf

>  <submitter_name>  (150) 
Steph Wills

>  <submitter_institution>  (150) 
University of Oxford

>  <submitter_email>  (150) 
stephanie.wills@balliol.ox.ac.uk

>  <generation_date>  (150) 
2023-11-23

>  <method>  (150) 
FragNetv2

>  <original SMILES>  (150) 
CCn1nc(C(C)(C)C)cc1NC(=O)C=C(C)Cl

>  <original_name>  (150) 
x0556_0A-x0310_0A_36822_B1X

>  <ref_mols>  (150) 
x0556_0A,x0310_0A

>  <ref_pdb>  (150) 
x0310_0A

>  <rationale>  (150) 
FragNet: 1 round bioisosteric merging incl c1cn[nH]c1 and CC(Cl)=CC(=O)N[Xe] replacing N#CCC(=O)N[Xe]

$$$$
x0556_0A-x0310_0A_34700-2_B2L
     RDKit          3D

 25 26  0  0  0  0  0  0  0  0999 V2000
   11.7760   13.7490   22.1450 C   0  0  0  0  0  0  0  0  0  0  0  0
   10.9890   13.2050   23.3250 C   0  0  0  0  0  0  0  0  0  0  0  0
   11.0810   13.7340   24.4250 O   0  0  0  0  0  0  0  0  0  0  0  0
   10.1840   12.1120   23.0450 N   0  0  0  0  0  0  0  0  0  0  0  0
    9.0930   11.8490   23.8900 C   0  0  0  0  0  0  0  0  0  0  0  0
    8.2070   12.9410   24.4820 C   0  0  0  0  0  0  0  0  0  0  0  0
    7.0580   12.5990   25.4130 C   0  0  0  0  0  0  0  0  0  0  0  0
    6.8920   11.1220   25.6740 C   0  0  0  0  0  0  0  0  0  0  0  0
    5.7130   10.8830   26.6420 C   0  0  0  0  0  0  0  0  0  0  0  0
    4.7490   11.6340   26.6810 O   0  0  0  0  0  0  0  0  0  0  0  0
    5.8830    9.7210   27.4940 N   0  0  0  0  0  0  0  0  0  0  0  0
    5.5040    9.6890   28.8300 C   0  0  2  0  0  0  0  0  0  0  0  0
    6.5420   10.3350   29.7430 C   0  0  0  0  0  0  0  0  0  0  0  0
    5.1890    8.2350   29.2440 C   0  0  0  0  0  0  0  0  0  0  0  0
    4.6280    8.1770   30.4880 N   0  0  0  0  0  0  0  0  0  0  0  0
    5.1130    7.3370   31.4660 C   0  0  0  0  0  0  0  0  0  0  0  0
    4.7750    6.1590   31.5720 O   0  0  0  0  0  0  0  0  0  0  0  0
    6.0220    7.8730   32.3580 C   0  0  0  0  0  0  0  0  0  0  0  0
    7.3800    7.7180   32.0930 C   0  0  0  0  0  0  0  0  0  0  0  0
    8.3110    8.2530   32.9770 C   0  0  0  0  0  0  0  0  0  0  0  0
    7.7790    8.9770   34.1880 C   0  0  0  0  0  0  0  0  0  0  0  0
    6.4600    9.1150   34.4230 N   0  0  0  0  0  0  0  0  0  0  0  0
    5.6190    8.5610   33.5050 C   0  0  0  0  0  0  0  0  0  0  0  0
    7.6460   10.1020   25.1610 N   0  0  0  0  0  0  0  0  0  0  0  0
    8.6790   10.4090   24.3250 C   0  0  0  0  0  0  0  0  0  0  0  0
  1  2  1  0
  2  3  2  0
  2  4  1  0
  4  5  1  0
  5  6  2  0
  6  7  1  0
  7  8  2  0
  8  9  1  0
  9 10  2  0
  9 11  1  0
 11 12  1  0
 12 13  1  1
 12 14  1  0
 14 15  1  0
 15 16  1  0
 16 17  2  0
 16 18  1  0
 18 19  2  0
 19 20  1  0
 20 21  2  0
 21 22  1  0
 22 23  2  0
  8 24  1  0
 24 25  2  0
 25  5  1  0
 23 18  1  0
A    1
 C1 
A    2
 C2 
A    3
 O1 
A    4
 N1 
A    5
 C3 
A    6
 C4 
A    7
 C5 
A    8
 C6 
A    9
 C7 
A   10
 O2 
A   11
 N2 
A   12
 C8 
A   13
 C9 
A   14
 C10
A   15
 N3 
A   16
 C11
A   17
 O3 
A   18
 C12
A   19
 C13
A   20
 C14
A   21
 C15
A   22
 N4 
A   23
 C16
A   24
 N5 
A   25
 C17
M  END
>  <similarity>  (151) 
1.0

>  <smiles>  (151) 
CC(=O)Nc1ccc(C(=O)NC(C)CNC(=O)c2cccnc2)nc1

>  <cmpd_id>  (151) 
ENAMINE:PV-001407017877,ENAMINE:PV-001624466797,ENAMINE:PV-001633164400

>  <used_subnode>  (151) 
[Xe]n1cccn1

>  <used_synthon>  (151) 
CC(=O)N[Xe]

>  <ref_subnode>  (151) 
[Xe]n1cccn1

>  <ref_synthon>  (151) 
N#CCC(=O)N[Xe]

>  <fragmentA>  (151) 
x0556_0A

>  <fragmentB>  (151) 
x0310_0A

>  <rev_synthon>  (151) 
[Xe]c1cccnc1

>  <intermed_node1>  (151) 
CC(=O)Nc1ccc(C(=O)NC(C)CNC=O)nc1

>  <HA>  (151) 
25

>  <HBD>  (151) 
3

>  <HBA>  (151) 
5

>  <MW>  (151) 
341.1487894680001

>  <TPSA>  (151) 
113.08000000000001

>  <LogP>  (151) 
0.9832999999999987

>  <RBs>  (151) 
6

>  <G_bound>  (151) 
-7.293553157893254

>  <G_unbound>  (151) 
0.8400690455557217

>  <deltaG>  (151) 
-8.133622203448976

>  <comRMSD>  (151) 
0.8235493139831717

>  <substructure_overlap_check>  (151) 
True

>  <energy_ratio_check>  (151) 
True

>  <const_energy/unconst_energy>  (151) 
3.8397570272827215

>  <sucos>  (151) 
0.5691483264680569

>  <interactions>  (151) 
Hydrophobic_PRO-107,Hydrophobic_GLU-106,Hydrophobic_HIS-21,HBDonor_SER-105

>  <total_num_ints>  (151) 
4

>  <total_num_ints_nonhyd>  (151) 
1

>  <num_uniq_frag_ints>  (151) 
1

>  <num_repl_uniq_ints>  (151) 
1

>  <num_uniq_ints_lost>  (151) 
0

>  <num_new_uniq_ints>  (151) 
3

>  <int_check>  (151) 
True

>  <ref_url>  (151) 
https://pubs.acs.org/doi/10.1021/acs.jcim.3c00276?fig=tgr1&ref=pdf

>  <submitter_name>  (151) 
Steph Wills

>  <submitter_institution>  (151) 
University of Oxford

>  <submitter_email>  (151) 
stephanie.wills@balliol.ox.ac.uk

>  <generation_date>  (151) 
2023-11-23

>  <method>  (151) 
FragNetv2

>  <original SMILES>  (151) 
CC(=O)Nc1ccc(C(=O)NC(C)CNC(=O)c2cccnc2)nc1

>  <original_name>  (151) 
x0556_0A-x0310_0A_34700-2_B2L

>  <ref_mols>  (151) 
x0556_0A,x0310_0A

>  <ref_pdb>  (151) 
x0310_0A

>  <rationale>  (151) 
FragNet: 2 rounds bioisosteric merging (with change in linker) incl [Xe]c1cccnc1 replacing [Xe]n1cccn1 and CC(=O)N[Xe] replacing N#CCC(=O)N[Xe]

$$$$
x0556_0A-x0310_0A_54187_B1X_rgrp-0
     RDKit          3D

 20 20  0  0  0  0  0  0  0  0999 V2000
   11.2580   14.5650   19.8280 C   0  0  0  0  0  0  0  0  0  0  0  0
   11.1690   15.2640   21.1190 C   0  0  0  0  0  0  0  0  0  0  0  0
   12.1570   15.8820   21.8430 C   0  0  0  0  0  0  0  0  0  0  0  0
   12.3460   15.1270   22.9910 C   0  0  0  0  0  0  0  0  0  0  0  0
   12.0110   13.7070   23.1620 C   0  0  1  0  0  0  0  0  0  0  0  0
   12.9730   13.1340   24.1530 C   0  0  0  0  0  0  0  0  0  0  0  0
   10.6080   13.5570   23.7400 C   0  0  0  0  0  0  0  0  0  0  0  0
   10.2630   14.1560   24.7490 O   0  0  0  0  0  0  0  0  0  0  0  0
    9.8010   12.6760   23.0560 N   0  0  0  0  0  0  0  0  0  0  0  0
    8.9660   11.7840   23.8660 C   0  0  0  0  0  0  0  0  0  0  0  0
    7.9380   12.4050   24.7510 C   0  0  0  0  0  0  0  0  0  0  0  0
    7.6800   13.9010   24.8800 C   0  0  0  0  0  0  0  0  0  0  0  0
    7.2150   11.3450   25.4840 C   0  0  0  0  0  0  0  0  0  0  0  0
    6.0890   11.3860   26.5080 C   0  0  0  0  0  0  0  0  0  0  0  0
    6.5250   11.8320   27.7200 F   0  0  0  0  0  0  0  0  0  0  0  0
    5.4740   10.2010   26.7420 F   0  0  0  0  0  0  0  0  0  0  0  0
    5.1110   12.2690   26.1570 F   0  0  0  0  0  0  0  0  0  0  0  0
    7.8440   10.1170   25.0020 N   0  0  0  0  0  0  0  0  0  0  0  0
    8.8640   10.4390   24.0560 N   0  0  0  0  0  0  0  0  0  0  0  0
    9.5830    9.4190   23.4880 C   0  0  0  0  0  0  0  0  0  0  0  0
  1  2  1  0
  2  3  1  0
  3  4  1  0
  4  5  1  0
  5  6  1  1
  5  7  1  0
  7  8  2  0
  7  9  1  0
  9 10  1  0
 10 11  2  0
 11 12  1  0
 11 13  1  0
 13 14  1  0
 14 15  1  0
 14 16  1  0
 14 17  1  0
 13 18  2  0
 18 19  1  0
 19 20  1  0
 19 10  1  0
A    1
 C1 
A    2
 C2 
A    3
 C3 
A    4
 C4 
A    5
 C5 
A    6
 C6 
A    7
 C7 
A    8
 O1 
A    9
 N1 
A   10
 C8 
A   11
 C9 
A   12
 C10
A   13
 C11
A   14
 C12
A   15
 F1 
A   16
 F2 
A   17
 F3 
A   18
 N2 
A   19
 N3 
A   20
 C13
M  END
>  <similarity>  (152) 
1.0

>  <smiles>  (152) 
CCCCC(C)C(=O)Nc1c(C)c(C(F)(F)F)nn1C

>  <cmpd_id>  (152) 
ENAMINE:Z2000289922

>  <used_subnode>  (152) 
c1cn[nH]c1

>  <used_synthon>  (152) 
CCCCC(C)C(=O)N[Xe]

>  <ref_subnode>  (152) 
c1cn[nH]c1

>  <ref_synthon>  (152) 
N#CCC(=O)N[Xe]

>  <fragmentA>  (152) 
x0556_0A

>  <fragmentB>  (152) 
x0310_0A

>  <HA>  (152) 
20

>  <HBD>  (152) 
1

>  <HBA>  (152) 
3

>  <MW>  (152) 
291.15584692

>  <TPSA>  (152) 
46.92

>  <LogP>  (152) 
3.512120000000002

>  <RBs>  (152) 
5

>  <G_bound>  (152) 
-10.098833017828436

>  <G_unbound>  (152) 
0.42171839830018837

>  <deltaG>  (152) 
-10.520551416128624

>  <comRMSD>  (152) 
0.35953419695889133

>  <substructure_overlap_check>  (152) 
True

>  <energy_ratio_check>  (152) 
True

>  <const_energy/unconst_energy>  (152) 
4.210265299621074

>  <sucos>  (152) 
0.5696546081398146

>  <interactions>  (152) 
Hydrophobic_PRO-107,Hydrophobic_HIS-21,Hydrophobic_TYR-89,HBDonor_SER-125,Hydrophobic_TYR-90,Hydrophobic_THR-126

>  <total_num_ints>  (152) 
6

>  <total_num_ints_nonhyd>  (152) 
1

>  <num_uniq_frag_ints>  (152) 
1

>  <num_repl_uniq_ints>  (152) 
1

>  <num_uniq_ints_lost>  (152) 
0

>  <num_new_uniq_ints>  (152) 
5

>  <int_check>  (152) 
True

>  <ref_url>  (152) 
https://pubs.acs.org/doi/10.1021/acs.jcim.3c00276?fig=tgr1&ref=pdf

>  <submitter_name>  (152) 
Steph Wills

>  <submitter_institution>  (152) 
University of Oxford

>  <submitter_email>  (152) 
stephanie.wills@balliol.ox.ac.uk

>  <generation_date>  (152) 
2023-11-23

>  <method>  (152) 
FragNetv2

>  <original SMILES>  (152) 
CCCCC(C)C(=O)Nc1c(C)c(C(F)(F)F)nn1C

>  <original_name>  (152) 
x0556_0A-x0310_0A_54187_B1X_rgrp-0

>  <ref_mols>  (152) 
x0556_0A,x0310_0A

>  <ref_pdb>  (152) 
x0310_0A

>  <rationale>  (152) 
FragNet: 1 round bioisosteric merging incl c1cn[nH]c1 and CCCCC(C)C(=O)N[Xe] replacing N#CCC(=O)N[Xe]

$$$$
x0556_0A-x0310_0A_52836_B1X
     RDKit          3D

 22 23  0  0  0  0  0  0  0  0999 V2000
    9.6840    9.3470   23.1640 C   0  0  0  0  0  0  0  0  0  0  0  0
    8.8450   10.2920   23.8960 N   0  0  0  0  0  0  0  0  0  0  0  0
    7.9420    9.8900   24.8640 N   0  0  0  0  0  0  0  0  0  0  0  0
    7.3350   11.0200   25.3040 C   0  0  0  0  0  0  0  0  0  0  0  0
    6.2390   10.9890   26.3770 C   0  0  0  0  0  0  0  0  0  0  0  0
    5.3390   12.2210   26.4470 C   0  0  0  0  0  0  0  0  0  0  0  0
    4.2600   12.1130   27.5520 C   0  0  0  0  0  0  0  0  0  0  0  0
    4.3630   10.5360   28.4670 S   0  0  0  0  0  0  0  0  0  0  0  0
    5.7820   10.1310   27.3660 C   0  0  0  0  0  0  0  0  0  0  0  0
    7.8570   12.2380   24.6110 C   0  0  0  0  0  0  0  0  0  0  0  0
    8.8720   11.6340   23.6800 C   0  0  0  0  0  0  0  0  0  0  0  0
    9.6380   12.4770   22.7830 N   0  0  0  0  0  0  0  0  0  0  0  0
   10.4420   13.4120   23.2520 C   0  0  0  0  0  0  0  0  0  0  0  0
   10.3830   13.9050   24.3680 O   0  0  0  0  0  0  0  0  0  0  0  0
   11.4500   13.7770   22.1610 C   0  0  0  0  0  0  0  0  0  0  0  0
   12.4060   14.7920   22.7190 C   0  0  0  0  0  0  0  0  0  0  0  0
   11.8700   16.1260   22.5960 C   0  0  0  0  0  0  0  0  0  0  0  0
   13.5130   15.1290   22.0910 C   0  0  0  0  0  0  0  0  0  0  0  0
   12.6410   14.3160   24.1550 C   0  0  0  0  0  0  0  0  0  0  0  0
   13.9270   14.2330   24.6530 C   0  0  0  0  0  0  0  0  0  0  0  0
   11.9150   15.0230   25.0530 F   0  0  0  0  0  0  0  0  0  0  0  0
   12.2080   13.0440   24.2490 F   0  0  0  0  0  0  0  0  0  0  0  0
  1  2  1  0
  2  3  1  0
  3  4  2  0
  4  5  1  0
  5  6  1  0
  6  7  2  0
  7  8  1  0
  8  9  1  0
  4 10  1  0
 10 11  2  0
 11 12  1  0
 12 13  1  0
 13 14  2  0
 13 15  1  0
 15 16  1  0
 16 17  1  0
 16 18  1  0
 16 19  1  0
 19 20  1  0
 19 21  1  0
 19 22  1  0
 11  2  1  0
  9  5  2  0
A    1
 C1 
A    2
 N1 
A    3
 N2 
A    4
 C2 
A    5
 C3 
A    6
 C4 
A    7
 C5 
A    8
 S1 
A    9
 C6 
A   10
 C7 
A   11
 C8 
A   12
 N3 
A   13
 C9 
A   14
 O1 
A   15
 C10
A   16
 C11
A   17
 C12
A   18
 C13
A   19
 C14
A   20
 C15
A   21
 F1 
A   22
 F2 
M  END
>  <similarity>  (153) 
1.0

>  <smiles>  (153) 
Cn1nc(-c2ccsc2)cc1NC(=O)CC(C)(C)C(C)(F)F

>  <cmpd_id>  (153) 
ENAMINE:Z3353577033

>  <used_subnode>  (153) 
c1cn[nH]c1

>  <used_synthon>  (153) 
CC(F)(F)C(C)(C)CC(=O)N[Xe]

>  <ref_subnode>  (153) 
c1cn[nH]c1

>  <ref_synthon>  (153) 
N#CCC(=O)N[Xe]

>  <fragmentA>  (153) 
x0556_0A

>  <fragmentB>  (153) 
x0310_0A

>  <HA>  (153) 
22

>  <HBD>  (153) 
1

>  <HBA>  (153) 
4

>  <MW>  (153) 
327.121689668

>  <TPSA>  (153) 
46.92

>  <LogP>  (153) 
4.158600000000003

>  <RBs>  (153) 
5

>  <G_bound>  (153) 
-8.267731954140796

>  <G_unbound>  (153) 
0.5207808501841392

>  <deltaG>  (153) 
-8.788512804324935

>  <comRMSD>  (153) 
0.44143926642803566

>  <UFFGibbs>  (153) 
1439.941901357869

>  <strain_per_HA>  (153) 
65.45190460717586

>  <substructure_overlap_check>  (153) 
True

>  <energy_ratio_check>  (153) 
True

>  <const_energy/unconst_energy>  (153) 
0.9761505855160655

>  <sucos>  (153) 
0.5702238104180546

>  <interactions>  (153) 
HBDonor_SER-125,Hydrophobic_TYR-90,Hydrophobic_HIS-21,Hydrophobic_PRO-107,Hydrophobic_TYR-89

>  <total_num_ints>  (153) 
5

>  <total_num_ints_nonhyd>  (153) 
1

>  <num_uniq_frag_ints>  (153) 
1

>  <num_repl_uniq_ints>  (153) 
1

>  <num_uniq_ints_lost>  (153) 
0

>  <num_new_uniq_ints>  (153) 
4

>  <int_check>  (153) 
True

>  <ref_url>  (153) 
https://pubs.acs.org/doi/10.1021/acs.jcim.3c00276?fig=tgr1&ref=pdf

>  <submitter_name>  (153) 
Steph Wills

>  <submitter_institution>  (153) 
University of Oxford

>  <submitter_email>  (153) 
stephanie.wills@balliol.ox.ac.uk

>  <generation_date>  (153) 
2023-11-23

>  <method>  (153) 
FragNetv2

>  <original SMILES>  (153) 
Cn1nc(-c2ccsc2)cc1NC(=O)CC(C)(C)C(C)(F)F

>  <original_name>  (153) 
x0556_0A-x0310_0A_52836_B1X

>  <ref_mols>  (153) 
x0556_0A,x0310_0A

>  <ref_pdb>  (153) 
x0310_0A

>  <rationale>  (153) 
FragNet: 1 round bioisosteric merging incl c1cn[nH]c1 and CC(F)(F)C(C)(C)CC(=O)N[Xe] replacing N#CCC(=O)N[Xe]

$$$$
x0556_0A-x0310_0A_25100_B1X
     RDKit          3D

 21 22  0  0  0  0  0  0  0  0999 V2000
   13.1980   15.3390   21.8930 C   0  0  0  0  0  0  0  0  0  0  0  0
   12.3470   15.7420   23.0380 C   0  0  0  0  0  0  0  0  0  0  0  0
   12.4980   14.8430   24.1660 C   0  0  0  0  0  0  0  0  0  0  0  0
   12.0310   13.7310   23.2570 C   0  0  2  0  0  0  0  0  0  0  0  0
   10.8360   13.0590   23.8850 C   0  0  0  0  0  0  0  0  0  0  0  0
   10.5720   13.3510   25.0160 O   0  0  0  0  0  0  0  0  0  0  0  0
   10.0260   12.1870   23.1610 N   0  0  0  0  0  0  0  0  0  0  0  0
    9.0700   11.4660   23.9040 C   0  0  0  0  0  0  0  0  0  0  0  0
    8.9330   10.1250   24.0130 N   0  0  0  0  0  0  0  0  0  0  0  0
    7.9140    9.8090   24.8430 N   0  0  0  0  0  0  0  0  0  0  0  0
    7.3400   10.9570   25.3070 C   0  0  0  0  0  0  0  0  0  0  0  0
    6.1930   10.9850   26.2500 C   0  0  0  0  0  0  0  0  0  0  0  0
    5.3350   11.8640   26.2530 O   0  0  0  0  0  0  0  0  0  0  0  0
    6.1660    9.9590   27.1690 O   0  0  0  0  0  0  0  0  0  0  0  0
    8.0520   12.0460   24.7190 C   0  0  0  0  0  0  0  0  0  0  0  0
    7.7860   13.5270   24.9290 C   0  0  0  0  0  0  0  0  0  0  0  0
    7.3300   13.8440   26.2130 C   0  0  0  0  0  0  0  0  0  0  0  0
    6.2580   13.9580   25.0320 C   0  0  0  0  0  0  0  0  0  0  0  0
   13.3110   12.9950   22.9280 C   0  0  0  0  0  0  0  0  0  0  0  0
   13.4700   11.9700   23.7290 C   0  0  0  0  0  0  0  0  0  0  0  0
   13.3740   12.5710   21.6340 C   0  0  0  0  0  0  0  0  0  0  0  0
  1  2  1  0
  2  3  1  0
  4  3  1  1
  4  5  1  0
  5  6  2  0
  5  7  1  0
  7  8  1  0
  8  9  2  0
  9 10  1  0
 10 11  1  0
 11 12  1  0
 12 13  2  0
 12 14  1  0
 11 15  2  0
 15 16  1  0
 16 17  1  0
 17 18  1  0
  4 19  1  0
 19 20  1  0
 19 21  1  0
 15  8  1  0
 18 16  1  0
A    1
 C1 
A    2
 C2 
A    3
 C3 
A    4
 C4 
A    5
 C5 
A    6
 O1 
A    7
 N1 
A    8
 C6 
A    9
 N2 
A   10
 N3 
A   11
 C7 
A   12
 C8 
A   13
 O2 
A   14
 O3 
A   15
 C9 
A   16
 C10
A   17
 C11
A   18
 C12
A   19
 C13
A   20
 C14
A   21
 C15
M  END
>  <similarity>  (154) 
1.0

>  <smiles>  (154) 
CCCC(C(=O)Nc1n[nH]c(C(=O)O)c1C1CC1)C(C)C

>  <cmpd_id>  (154) 
ENAMINE:Z3510170264

>  <used_subnode>  (154) 
c1cn[nH]c1

>  <used_synthon>  (154) 
CCCC(C(=O)N[Xe])C(C)C

>  <ref_subnode>  (154) 
c1cn[nH]c1

>  <ref_synthon>  (154) 
N#CCC(=O)N[Xe]

>  <fragmentA>  (154) 
x0556_0A

>  <fragmentB>  (154) 
x0310_0A

>  <HA>  (154) 
21

>  <HBD>  (154) 
3

>  <HBA>  (154) 
3

>  <MW>  (154) 
293.173941596

>  <TPSA>  (154) 
95.08

>  <LogP>  (154) 
2.996100000000001

>  <RBs>  (154) 
7

>  <G_bound>  (154) 
-1.4115802820205379

>  <G_unbound>  (154) 
1.2370792264437869

>  <deltaG>  (154) 
-2.6486595084643247

>  <comRMSD>  (154) 
0.6297155252467734

>  <UFFGibbs>  (154) 
988.6329581295647

>  <strain_per_HA>  (154) 
47.077759910931654

>  <substructure_overlap_check>  (154) 
True

>  <energy_ratio_check>  (154) 
True

>  <const_energy/unconst_energy>  (154) 
1.0592059470856598

>  <sucos>  (154) 
0.5738018157218451

>  <interactions>  (154) 
HBDonor_SER-125,Hydrophobic_TYR-90,Hydrophobic_HIS-21,HBDonor_SER-105,Hydrophobic_PRO-107,Hydrophobic_CYS-110,Hydrophobic_TYR-89

>  <total_num_ints>  (154) 
7

>  <total_num_ints_nonhyd>  (154) 
2

>  <num_uniq_frag_ints>  (154) 
1

>  <num_repl_uniq_ints>  (154) 
1

>  <num_uniq_ints_lost>  (154) 
0

>  <num_new_uniq_ints>  (154) 
6

>  <int_check>  (154) 
True

>  <ref_url>  (154) 
https://pubs.acs.org/doi/10.1021/acs.jcim.3c00276?fig=tgr1&ref=pdf

>  <submitter_name>  (154) 
Steph Wills

>  <submitter_institution>  (154) 
University of Oxford

>  <submitter_email>  (154) 
stephanie.wills@balliol.ox.ac.uk

>  <generation_date>  (154) 
2023-11-23

>  <method>  (154) 
FragNetv2

>  <original SMILES>  (154) 
CCCC(C(=O)Nc1n[nH]c(C(=O)O)c1C1CC1)C(C)C

>  <original_name>  (154) 
x0556_0A-x0310_0A_25100_B1X

>  <ref_mols>  (154) 
x0556_0A,x0310_0A

>  <ref_pdb>  (154) 
x0310_0A

>  <rationale>  (154) 
FragNet: 1 round bioisosteric merging incl c1cn[nH]c1 and CCCC(C(=O)N[Xe])C(C)C replacing N#CCC(=O)N[Xe]

$$$$
x0556_0A-x0310_0A_36417_B1X_rgrp-0
     RDKit          3D

 12 12  0  0  0  0  0  0  0  0999 V2000
   10.0780    9.2260   22.1960 C   0  0  0  0  0  0  0  0  0  0  0  0
    9.7720    9.2730   23.6250 C   0  0  0  0  0  0  0  0  0  0  0  0
    9.0260   10.3460   24.0680 N   0  0  0  0  0  0  0  0  0  0  0  0
    7.9790   10.0140   24.8840 N   0  0  0  0  0  0  0  0  0  0  0  0
    7.3600   11.1400   25.2430 C   0  0  0  0  0  0  0  0  0  0  0  0
    6.1440   11.1400   26.1660 C   0  0  0  0  0  0  0  0  0  0  0  0
    8.0950   12.2730   24.5780 C   0  0  0  0  0  0  0  0  0  0  0  0
    9.2010   11.7110   23.8080 C   0  0  0  0  0  0  0  0  0  0  0  0
   10.1840   12.3140   23.0320 N   0  0  0  0  0  0  0  0  0  0  0  0
   10.9620   13.3270   23.5730 C   0  0  0  0  0  0  0  0  0  0  0  0
   12.1480   13.6100   22.8400 C   0  0  0  0  0  0  0  0  0  0  0  0
   10.7030   13.9670   24.5870 O   0  0  0  0  0  0  0  0  0  0  0  0
  1  2  1  0
  2  3  1  0
  3  4  1  0
  4  5  2  0
  5  6  1  0
  5  7  1  0
  7  8  2  0
  8  9  1  0
  9 10  1  0
 10 11  1  0
 10 12  2  0
  8  3  1  0
A    1
 C1 
A    2
 C2 
A    3
 N1 
A    4
 N2 
A    5
 C3 
A    6
 C4 
A    7
 C5 
A    8
 C6 
A    9
 N3 
A   10
 C7 
A   11
 C8 
A   12
 O1 
M  END
>  <similarity>  (155) 
1.0

>  <smiles>  (155) 
CCn1nc(C)cc1NC(C)=O

>  <cmpd_id>  (155) 
CHEMSPACE-BB:CSMB00010507979,MOLPORT:047-807-571,ENAMINE:PV-002469162673

>  <used_subnode>  (155) 
c1cn[nH]c1

>  <used_synthon>  (155) 
CC(=O)N[Xe]

>  <ref_subnode>  (155) 
c1cn[nH]c1

>  <ref_synthon>  (155) 
N#CCC(=O)N[Xe]

>  <fragmentA>  (155) 
x0556_0A

>  <fragmentB>  (155) 
x0310_0A

>  <HA>  (155) 
12

>  <HBD>  (155) 
1

>  <HBA>  (155) 
3

>  <MW>  (155) 
167.105862036

>  <TPSA>  (155) 
46.92

>  <LogP>  (155) 
1.1698199999999999

>  <RBs>  (155) 
2

>  <G_bound>  (155) 
-8.542045601480657

>  <G_unbound>  (155) 
-0.055922351880423875

>  <deltaG>  (155) 
-8.486123249600233

>  <comRMSD>  (155) 
0.13354509183098334

>  <substructure_overlap_check>  (155) 
True

>  <energy_ratio_check>  (155) 
True

>  <const_energy/unconst_energy>  (155) 
2.3757146116701584

>  <sucos>  (155) 
0.5762762336946321

>  <interactions>  (155) 
Hydrophobic_PRO-107,Hydrophobic_HIS-21,HBDonor_SER-125,Hydrophobic_VAL-124

>  <total_num_ints>  (155) 
4

>  <total_num_ints_nonhyd>  (155) 
1

>  <num_uniq_frag_ints>  (155) 
1

>  <num_repl_uniq_ints>  (155) 
1

>  <num_uniq_ints_lost>  (155) 
0

>  <num_new_uniq_ints>  (155) 
3

>  <int_check>  (155) 
True

>  <ref_url>  (155) 
https://pubs.acs.org/doi/10.1021/acs.jcim.3c00276?fig=tgr1&ref=pdf

>  <submitter_name>  (155) 
Steph Wills

>  <submitter_institution>  (155) 
University of Oxford

>  <submitter_email>  (155) 
stephanie.wills@balliol.ox.ac.uk

>  <generation_date>  (155) 
2023-11-23

>  <method>  (155) 
FragNetv2

>  <original SMILES>  (155) 
CCn1nc(C)cc1NC(C)=O

>  <original_name>  (155) 
x0556_0A-x0310_0A_36417_B1X_rgrp-0

>  <ref_mols>  (155) 
x0556_0A,x0310_0A

>  <ref_pdb>  (155) 
x0310_0A

>  <rationale>  (155) 
FragNet: 1 round bioisosteric merging incl c1cn[nH]c1 and CC(=O)N[Xe] replacing N#CCC(=O)N[Xe]

$$$$
x0556_0A-x0310_0A_40106_B1X
     RDKit          3D

 19 19  0  0  0  0  0  0  0  0999 V2000
    6.4090   11.1310   26.2060 C   0  0  0  0  0  0  0  0  0  0  0  0
    7.5250   10.9820   25.1860 C   0  0  0  0  0  0  0  0  0  0  0  0
    8.2100   12.1500   24.5280 C   0  0  0  0  0  0  0  0  0  0  0  0
    9.0970   11.3000   23.7330 C   0  0  0  0  0  0  0  0  0  0  0  0
    9.9440   12.0860   22.9380 N   0  0  0  0  0  0  0  0  0  0  0  0
   10.6840   13.1710   23.3680 C   0  0  0  0  0  0  0  0  0  0  0  0
   10.5890   13.6850   24.4780 O   0  0  0  0  0  0  0  0  0  0  0  0
   11.6810   13.7080   22.3030 C   0  0  0  0  0  0  0  0  0  0  0  0
   12.6200   14.8040   22.7660 C   0  0  0  0  0  0  0  0  0  0  0  0
   12.0410   15.9280   23.2260 F   0  0  0  0  0  0  0  0  0  0  0  0
   13.4480   15.1830   21.7770 F   0  0  0  0  0  0  0  0  0  0  0  0
   13.4040   14.3230   23.7680 F   0  0  0  0  0  0  0  0  0  0  0  0
   10.8550   14.4390   21.2260 C   0  0  0  0  0  0  0  0  0  0  0  0
   10.9180   15.7590   21.4560 F   0  0  0  0  0  0  0  0  0  0  0  0
    9.5380   14.1430   21.2760 F   0  0  0  0  0  0  0  0  0  0  0  0
   11.3020   14.3250   19.9640 F   0  0  0  0  0  0  0  0  0  0  0  0
    9.2310   10.2090   23.6350 N   0  0  0  0  0  0  0  0  0  0  0  0
   10.0400    9.3760   22.9010 C   0  0  0  0  0  0  0  0  0  0  0  0
    8.2170    9.8540   24.5810 N   0  0  0  0  0  0  0  0  0  0  0  0
  1  2  1  0
  2  3  1  0
  3  4  2  0
  4  5  1  0
  5  6  1  0
  6  7  2  0
  6  8  1  0
  8  9  1  0
  9 10  1  0
  9 11  1  0
  9 12  1  0
  8 13  1  0
 13 14  1  0
 13 15  1  0
 13 16  1  0
  4 17  1  0
 17 18  1  0
 17 19  1  0
 19  2  2  0
A    1
 C1 
A    2
 C2 
A    3
 C3 
A    4
 C4 
A    5
 N1 
A    6
 C5 
A    7
 O1 
A    8
 C6 
A    9
 C7 
A   10
 F1 
A   11
 F2 
A   12
 F3 
A   13
 C8 
A   14
 F4 
A   15
 F5 
A   16
 F6 
A   17
 N2 
A   18
 C9 
A   19
 N3 
M  END
>  <similarity>  (156) 
1.0

>  <smiles>  (156) 
Cc1cc(NC(=O)C(C(F)(F)F)C(F)(F)F)n(C)n1

>  <cmpd_id>  (156) 
ENAMINE:Z1873340206

>  <used_subnode>  (156) 
c1cn[nH]c1

>  <used_synthon>  (156) 
O=C(N[Xe])C(C(F)(F)F)C(F)(F)F

>  <ref_subnode>  (156) 
c1cn[nH]c1

>  <ref_synthon>  (156) 
N#CCC(=O)N[Xe]

>  <fragmentA>  (156) 
x0556_0A

>  <fragmentB>  (156) 
x0310_0A

>  <HA>  (156) 
19

>  <HBD>  (156) 
1

>  <HBA>  (156) 
3

>  <MW>  (156) 
289.064981228

>  <TPSA>  (156) 
46.92

>  <LogP>  (156) 
2.40782

>  <RBs>  (156) 
2

>  <G_bound>  (156) 
-5.239851217664145

>  <G_unbound>  (156) 
1.4686602849286474

>  <deltaG>  (156) 
-6.708511502592793

>  <comRMSD>  (156) 
0.42240512206197933

>  <UFFGibbs>  (156) 
204.63334568818794

>  <strain_per_HA>  (156) 
10.770176088851997

>  <substructure_overlap_check>  (156) 
True

>  <energy_ratio_check>  (156) 
True

>  <const_energy/unconst_energy>  (156) 
0.9984360792906642

>  <sucos>  (156) 
0.5774773059446181

>  <interactions>  (156) 
HBDonor_SER-125,Hydrophobic_HIS-21,Hydrophobic_PRO-107

>  <total_num_ints>  (156) 
3

>  <total_num_ints_nonhyd>  (156) 
1

>  <num_uniq_frag_ints>  (156) 
1

>  <num_repl_uniq_ints>  (156) 
1

>  <num_uniq_ints_lost>  (156) 
0

>  <num_new_uniq_ints>  (156) 
2

>  <int_check>  (156) 
True

>  <ref_url>  (156) 
https://pubs.acs.org/doi/10.1021/acs.jcim.3c00276?fig=tgr1&ref=pdf

>  <submitter_name>  (156) 
Steph Wills

>  <submitter_institution>  (156) 
University of Oxford

>  <submitter_email>  (156) 
stephanie.wills@balliol.ox.ac.uk

>  <generation_date>  (156) 
2023-11-23

>  <method>  (156) 
FragNetv2

>  <original SMILES>  (156) 
Cc1cc(NC(=O)C(C(F)(F)F)C(F)(F)F)n(C)n1

>  <original_name>  (156) 
x0556_0A-x0310_0A_40106_B1X

>  <ref_mols>  (156) 
x0556_0A,x0310_0A

>  <ref_pdb>  (156) 
x0310_0A

>  <rationale>  (156) 
FragNet: 1 round bioisosteric merging incl c1cn[nH]c1 and O=C(N[Xe])C(C(F)(F)F)C(F)(F)F replacing N#CCC(=O)N[Xe]

$$$$
x0556_0A-x0310_0A_50846_B1X_rgrp-0
     RDKit          3D

 18 18  0  0  0  0  0  0  0  0999 V2000
    6.3310   10.4970   26.1360 C   0  0  0  0  0  0  0  0  0  0  0  0
    7.5120   10.6510   25.1650 C   0  0  0  0  0  0  0  0  0  0  0  0
    8.2330    9.6830   24.5340 N   0  0  0  0  0  0  0  0  0  0  0  0
    9.1210   10.3720   23.8150 N   0  0  0  0  0  0  0  0  0  0  0  0
    9.9100    9.5470   23.1220 C   0  0  0  0  0  0  0  0  0  0  0  0
    9.0720   11.8120   23.9100 C   0  0  0  0  0  0  0  0  0  0  0  0
    9.9540   12.6110   23.2190 N   0  0  0  0  0  0  0  0  0  0  0  0
   10.8390   13.4370   23.8700 C   0  0  0  0  0  0  0  0  0  0  0  0
   10.6000   14.2110   24.8040 O   0  0  0  0  0  0  0  0  0  0  0  0
   12.1130   13.2910   23.3550 C   0  0  0  0  0  0  0  0  0  0  0  0
   12.9110   14.4110   23.4270 C   0  0  0  0  0  0  0  0  0  0  0  0
   13.1900   14.9490   21.7070 S   0  0  0  0  0  0  0  0  0  0  0  0
   11.6110   15.7330   21.5330 C   0  0  0  0  0  0  0  0  0  0  0  0
   10.6310   15.2810   20.5130 C   0  0  0  0  0  0  0  0  0  0  0  0
    9.5150   14.3900   20.9650 C   0  0  0  0  0  0  0  0  0  0  0  0
   11.3010   14.6240   19.2790 C   0  0  0  0  0  0  0  0  0  0  0  0
    8.0140   12.0560   24.7920 C   0  0  0  0  0  0  0  0  0  0  0  0
    7.4400   13.3670   25.3100 C   0  0  0  0  0  0  0  0  0  0  0  0
  1  2  1  0
  2  3  2  0
  3  4  1  0
  4  5  1  0
  4  6  1  0
  6  7  1  0
  7  8  1  0
  8  9  2  0
  8 10  1  0
 10 11  1  0
 11 12  1  0
 12 13  1  0
 13 14  1  0
 14 15  1  0
 14 16  1  0
  6 17  2  0
 17 18  1  0
 17  2  1  0
A    1
 C1 
A    2
 C2 
A    3
 N1 
A    4
 N2 
A    5
 C3 
A    6
 C4 
A    7
 N3 
A    8
 C5 
A    9
 O1 
A   10
 C6 
A   11
 C7 
A   12
 S1 
A   13
 C8 
A   14
 C9 
A   15
 C10
A   16
 C11
A   17
 C12
A   18
 C13
M  END
>  <similarity>  (157) 
1.0

>  <smiles>  (157) 
Cc1nn(C)c(NC(=O)CCSCC(C)C)c1C

>  <cmpd_id>  (157) 
ENAMINE:Z1144427904

>  <used_subnode>  (157) 
c1cn[nH]c1

>  <used_synthon>  (157) 
CC(C)CSCCC(=O)N[Xe]

>  <ref_subnode>  (157) 
c1cn[nH]c1

>  <ref_synthon>  (157) 
N#CCC(=O)N[Xe]

>  <fragmentA>  (157) 
x0556_0A

>  <fragmentB>  (157) 
x0310_0A

>  <HA>  (157) 
18

>  <HBD>  (157) 
1

>  <HBA>  (157) 
4

>  <MW>  (157) 
269.156183356

>  <TPSA>  (157) 
46.92

>  <LogP>  (157) 
2.754740000000001

>  <RBs>  (157) 
6

>  <G_bound>  (157) 
-12.514349867334014

>  <G_unbound>  (157) 
0.31279626076430117

>  <deltaG>  (157) 
-12.827146128098315

>  <comRMSD>  (157) 
0.5268800081362192

>  <substructure_overlap_check>  (157) 
True

>  <energy_ratio_check>  (157) 
True

>  <const_energy/unconst_energy>  (157) 
4.683344236627668

>  <sucos>  (157) 
0.5786260191426286

>  <interactions>  (157) 
Hydrophobic_PRO-107,Hydrophobic_HIS-21,Hydrophobic_TYR-89,HBDonor_SER-125,Hydrophobic_VAL-84,Hydrophobic_ASP-39,Hydrophobic_TYR-90,Hydrophobic_THR-126

>  <total_num_ints>  (157) 
8

>  <total_num_ints_nonhyd>  (157) 
1

>  <num_uniq_frag_ints>  (157) 
1

>  <num_repl_uniq_ints>  (157) 
1

>  <num_uniq_ints_lost>  (157) 
0

>  <num_new_uniq_ints>  (157) 
7

>  <int_check>  (157) 
True

>  <ref_url>  (157) 
https://pubs.acs.org/doi/10.1021/acs.jcim.3c00276?fig=tgr1&ref=pdf

>  <submitter_name>  (157) 
Steph Wills

>  <submitter_institution>  (157) 
University of Oxford

>  <submitter_email>  (157) 
stephanie.wills@balliol.ox.ac.uk

>  <generation_date>  (157) 
2023-11-23

>  <method>  (157) 
FragNetv2

>  <original SMILES>  (157) 
Cc1nn(C)c(NC(=O)CCSCC(C)C)c1C

>  <original_name>  (157) 
x0556_0A-x0310_0A_50846_B1X_rgrp-0

>  <ref_mols>  (157) 
x0556_0A,x0310_0A

>  <ref_pdb>  (157) 
x0310_0A

>  <rationale>  (157) 
FragNet: 1 round bioisosteric merging incl c1cn[nH]c1 and CC(C)CSCCC(=O)N[Xe] replacing N#CCC(=O)N[Xe]

$$$$
x0556_0A-x0310_0A_309_PXX
     RDKit          3D

 16 17  0  0  0  0  0  0  0  0999 V2000
    9.7880    9.4780   23.1560 C   0  0  0  0  0  0  0  0  0  0  0  0
    8.9650   10.4080   23.8990 N   0  0  0  0  0  0  0  0  0  0  0  0
    7.9690    9.9950   24.7450 N   0  0  0  0  0  0  0  0  0  0  0  0
    7.4340   11.1390   25.2170 C   0  0  0  0  0  0  0  0  0  0  0  0
    6.2620   11.2160   26.1920 C   0  0  0  0  0  0  0  0  0  0  0  0
    5.5180   12.5500   26.0390 C   0  0  0  0  0  0  0  0  0  0  0  0
    5.1200   12.4110   27.5160 C   0  0  0  0  0  0  0  0  0  0  0  0
    6.4530   11.6710   27.6640 C   0  0  0  0  0  0  0  0  0  0  0  0
    8.1150   12.2290   24.6640 C   0  0  0  0  0  0  0  0  0  0  0  0
    9.0970   11.7640   23.8230 C   0  0  0  0  0  0  0  0  0  0  0  0
   10.0560   12.3930   23.0310 N   0  0  0  0  0  0  0  0  0  0  0  0
   10.9300   13.3100   23.5900 C   0  0  0  0  0  0  0  0  0  0  0  0
   10.7890   13.8230   24.6940 O   0  0  0  0  0  0  0  0  0  0  0  0
   12.1320   13.6840   22.7510 C   0  0  0  0  0  0  0  0  0  0  0  0
   12.1420   15.0470   22.6190 C   0  0  0  0  0  0  0  0  0  0  0  0
   12.0940   16.1950   22.5420 N   0  0  0  0  0  0  0  0  0  0  0  0
  1  2  1  0
  2  3  1  0
  3  4  2  0
  4  5  1  0
  5  6  1  0
  6  7  1  0
  7  8  1  0
  4  9  1  0
  9 10  2  0
 10 11  1  0
 11 12  1  0
 12 13  2  0
 12 14  1  0
 14 15  1  0
 15 16  3  0
 10  2  1  0
  8  5  1  0
A    1
 C1 
A    2
 N1 
A    3
 N2 
A    4
 C2 
A    5
 C3 
A    6
 C4 
A    7
 C5 
A    8
 C6 
A    9
 C7 
A   10
 C8 
A   11
 N3 
A   12
 C9 
A   13
 O1 
A   14
 C10
A   15
 C11
A   16
 N4 
M  END
>  <similarity>  (158) 
NA

>  <smiles>  (158) 
Cn1nc(C2CCC2)cc1NC(=O)CC#N

>  <cmpd_id>  (158) 
ENAMINE:Z1688566804

>  <used_subnode>  (158) 
NA

>  <used_synthon>  (158) 
NA

>  <ref_subnode>  (158) 
c1cn[nH]c1

>  <ref_synthon>  (158) 
N#CCC(=O)N[Xe]

>  <fragmentA>  (158) 
x0556_0A

>  <fragmentB>  (158) 
x0310_0A

>  <HA>  (158) 
16

>  <HBD>  (158) 
1

>  <HBA>  (158) 
4

>  <MW>  (158) 
218.116761068

>  <TPSA>  (158) 
70.71000000000001

>  <LogP>  (158) 
1.53978

>  <RBs>  (158) 
3

>  <G_bound>  (158) 
-7.813922384923657

>  <G_unbound>  (158) 
0.436504243686011

>  <deltaG>  (158) 
-8.250426628609668

>  <comRMSD>  (158) 
0.3991691482654306

>  <substructure_overlap_check>  (158) 
True

>  <energy_ratio_check>  (158) 
True

>  <const_energy/unconst_energy>  (158) 
1.5825735364788258

>  <sucos>  (158) 
0.579162864850614

>  <interactions>  (158) 
Hydrophobic_HIS-21,Hydrophobic_PRO-107,HBDonor_SER-125

>  <total_num_ints>  (158) 
3

>  <total_num_ints_nonhyd>  (158) 
1

>  <num_uniq_frag_ints>  (158) 
1

>  <num_repl_uniq_ints>  (158) 
1

>  <num_uniq_ints_lost>  (158) 
0

>  <num_new_uniq_ints>  (158) 
2

>  <int_check>  (158) 
True

>  <ref_url>  (158) 
https://pubs.acs.org/doi/10.1021/acs.jcim.3c00276?fig=tgr1&ref=pdf

>  <submitter_name>  (158) 
Steph Wills

>  <submitter_institution>  (158) 
University of Oxford

>  <submitter_email>  (158) 
stephanie.wills@balliol.ox.ac.uk

>  <generation_date>  (158) 
2023-11-23

>  <method>  (158) 
FragNetv2

>  <original SMILES>  (158) 
Cn1nc(C2CCC2)cc1NC(=O)CC#N

>  <original_name>  (158) 
x0556_0A-x0310_0A_309_PXX

>  <ref_mols>  (158) 
x0556_0A,x0310_0A

>  <ref_pdb>  (158) 
x0310_0A

>  <rationale>  (158) 
FragNet: perfect merge incl c1cn[nH]c1,N#CCC(=O)N[Xe]

$$$$
x0556_0A-x0310_0A_13767_B1X_rgrp-0
     RDKit          3D

 22 23  0  0  0  0  0  0  0  0999 V2000
    7.6280   14.0960   28.3660 C   0  0  0  0  0  0  0  0  0  0  0  0
    7.1880   13.6060   27.0970 O   0  0  0  0  0  0  0  0  0  0  0  0
    6.3500   12.5300   27.2710 C   0  0  0  0  0  0  0  0  0  0  0  0
    5.3020   12.6960   28.3920 C   0  0  0  0  0  0  0  0  0  0  0  0
    4.5030   11.5870   28.5190 C   0  0  0  0  0  0  0  0  0  0  0  0
    4.6730   10.4310   27.6690 C   0  0  0  0  0  0  0  0  0  0  0  0
    5.6070   10.2810   26.6600 C   0  0  0  0  0  0  0  0  0  0  0  0
    6.4640   11.3660   26.4670 C   0  0  0  0  0  0  0  0  0  0  0  0
    7.5230   11.2340   25.3700 C   0  0  0  0  0  0  0  0  0  0  0  0
    7.8750    9.9610   24.9860 N   0  0  0  0  0  0  0  0  0  0  0  0
    8.8250   10.1730   24.0430 N   0  0  0  0  0  0  0  0  0  0  0  0
    9.0760   11.5020   23.8220 C   0  0  0  0  0  0  0  0  0  0  0  0
   10.0510   12.0690   22.8910 N   0  0  0  0  0  0  0  0  0  0  0  0
   10.8150   13.0890   23.3710 C   0  0  0  0  0  0  0  0  0  0  0  0
   10.7150   13.4640   24.5330 O   0  0  0  0  0  0  0  0  0  0  0  0
   11.7330   13.7000   22.3590 C   0  0  0  0  0  0  0  0  0  0  0  0
   12.3150   14.8600   22.9940 C   0  0  0  0  0  0  0  0  0  0  0  0
   12.0940   16.0700   22.0900 C   0  0  0  0  0  0  0  0  0  0  0  0
   13.6310   14.6760   23.1620 F   0  0  0  0  0  0  0  0  0  0  0  0
   11.7770   15.1120   24.2080 F   0  0  0  0  0  0  0  0  0  0  0  0
    8.2450   12.2180   24.6560 C   0  0  0  0  0  0  0  0  0  0  0  0
    8.1550   13.5830   24.7660 C   0  0  0  0  0  0  0  0  0  0  0  0
  1  2  1  0
  2  3  1  0
  3  4  2  0
  4  5  1  0
  5  6  2  0
  6  7  1  0
  7  8  2  0
  8  9  1  0
  9 10  2  0
 10 11  1  0
 11 12  1  0
 12 13  1  0
 13 14  1  0
 14 15  2  0
 14 16  1  0
 16 17  1  0
 17 18  1  0
 17 19  1  0
 17 20  1  0
 12 21  2  0
 21 22  1  0
  8  3  1  0
 21  9  1  0
A    1
 C1 
A    2
 O1 
A    3
 C2 
A    4
 C3 
A    5
 C4 
A    6
 C5 
A    7
 C6 
A    8
 C7 
A    9
 C8 
A   10
 N1 
A   11
 N2 
A   12
 C9 
A   13
 N3 
A   14
 C10
A   15
 O2 
A   16
 C11
A   17
 C12
A   18
 C13
A   19
 F1 
A   20
 F2 
A   21
 C14
A   22
 C15
M  END
>  <similarity>  (159) 
1.0

>  <smiles>  (159) 
COc1ccccc1-c1n[nH]c(NC(=O)CC(C)(F)F)c1C

>  <cmpd_id>  (159) 
ENAMINE:Z2965259653

>  <used_subnode>  (159) 
c1cn[nH]c1

>  <used_synthon>  (159) 
CC(F)(F)CC(=O)N[Xe]

>  <ref_subnode>  (159) 
c1cn[nH]c1

>  <ref_synthon>  (159) 
N#CCC(=O)N[Xe]

>  <fragmentA>  (159) 
x0556_0A

>  <fragmentB>  (159) 
x0310_0A

>  <HA>  (159) 
22

>  <HBD>  (159) 
2

>  <HBA>  (159) 
3

>  <MW>  (159) 
309.128883224

>  <TPSA>  (159) 
67.00999999999999

>  <LogP>  (159) 
3.3775200000000014

>  <RBs>  (159) 
5

>  <G_bound>  (159) 
-7.614723703677469

>  <G_unbound>  (159) 
-0.009586483477444507

>  <deltaG>  (159) 
-7.6051372202000245

>  <comRMSD>  (159) 
0.10008218278181344

>  <substructure_overlap_check>  (159) 
True

>  <energy_ratio_check>  (159) 
True

>  <const_energy/unconst_energy>  (159) 
3.2739301721243823

>  <sucos>  (159) 
0.5793567469632711

>  <interactions>  (159) 
Hydrophobic_PRO-107,Hydrophobic_HIS-21,Hydrophobic_TYR-89,HBDonor_SER-125,Hydrophobic_TYR-90

>  <total_num_ints>  (159) 
5

>  <total_num_ints_nonhyd>  (159) 
1

>  <num_uniq_frag_ints>  (159) 
1

>  <num_repl_uniq_ints>  (159) 
1

>  <num_uniq_ints_lost>  (159) 
0

>  <num_new_uniq_ints>  (159) 
4

>  <int_check>  (159) 
True

>  <ref_url>  (159) 
https://pubs.acs.org/doi/10.1021/acs.jcim.3c00276?fig=tgr1&ref=pdf

>  <submitter_name>  (159) 
Steph Wills

>  <submitter_institution>  (159) 
University of Oxford

>  <submitter_email>  (159) 
stephanie.wills@balliol.ox.ac.uk

>  <generation_date>  (159) 
2023-11-23

>  <method>  (159) 
FragNetv2

>  <original SMILES>  (159) 
COc1ccccc1-c1n[nH]c(NC(=O)CC(C)(F)F)c1C

>  <original_name>  (159) 
x0556_0A-x0310_0A_13767_B1X_rgrp-0

>  <ref_mols>  (159) 
x0556_0A,x0310_0A

>  <ref_pdb>  (159) 
x0310_0A

>  <rationale>  (159) 
FragNet: 1 round bioisosteric merging incl c1cn[nH]c1 and CC(F)(F)CC(=O)N[Xe] replacing N#CCC(=O)N[Xe]

$$$$
x0556_0A-x0310_0A_8904_B1X_rgrp-0
     RDKit          3D

 14 14  0  0  0  0  0  0  0  0999 V2000
   10.7880    8.7860   23.2350 C   0  0  0  0  0  0  0  0  0  0  0  0
    9.5200    9.4290   22.8410 C   0  0  0  0  0  0  0  0  0  0  0  0
    8.8510   10.3300   23.8200 N   0  0  0  0  0  0  0  0  0  0  0  0
    8.0010    9.7620   24.7290 N   0  0  0  0  0  0  0  0  0  0  0  0
    7.5250   10.7770   25.4330 C   0  0  0  0  0  0  0  0  0  0  0  0
    8.1210   12.0500   24.9360 C   0  0  0  0  0  0  0  0  0  0  0  0
    7.7150   13.2930   25.5840 C   0  0  0  0  0  0  0  0  0  0  0  0
    8.9680   11.6970   23.9100 C   0  0  0  0  0  0  0  0  0  0  0  0
    9.7880   12.5870   23.1060 N   0  0  0  0  0  0  0  0  0  0  0  0
   10.8550   13.3080   23.5580 C   0  0  0  0  0  0  0  0  0  0  0  0
   10.9380   13.8460   24.6570 O   0  0  0  0  0  0  0  0  0  0  0  0
   11.9910   13.4130   22.6000 C   0  0  0  0  0  0  0  0  0  0  0  0
   11.8940   14.8680   21.5380 S   0  0  0  0  0  0  0  0  0  0  0  0
   12.2150   15.8780   22.9630 C   0  0  0  0  0  0  0  0  0  0  0  0
  1  2  1  0
  2  3  1  0
  3  4  1  0
  4  5  2  0
  5  6  1  0
  6  7  1  0
  6  8  2  0
  8  9  1  0
  9 10  1  0
 10 11  2  0
 10 12  1  0
 12 13  1  0
 13 14  1  0
  8  3  1  0
A    1
 C1 
A    2
 C2 
A    3
 N1 
A    4
 N2 
A    5
 C3 
A    6
 C4 
A    7
 C5 
A    8
 C6 
A    9
 N3 
A   10
 C7 
A   11
 O1 
A   12
 C8 
A   13
 S1 
A   14
 C9 
M  END
>  <similarity>  (160) 
1.0

>  <smiles>  (160) 
CCn1ncc(C)c1NC(=O)CSC

>  <cmpd_id>  (160) 
ENAMINE:Z2645583659

>  <used_subnode>  (160) 
c1cn[nH]c1

>  <used_synthon>  (160) 
CSCC(=O)N[Xe]

>  <ref_subnode>  (160) 
c1cn[nH]c1

>  <ref_synthon>  (160) 
N#CCC(=O)N[Xe]

>  <fragmentA>  (160) 
x0556_0A

>  <fragmentB>  (160) 
x0310_0A

>  <HA>  (160) 
14

>  <HBD>  (160) 
1

>  <HBA>  (160) 
4

>  <MW>  (160) 
213.0935831

>  <TPSA>  (160) 
46.92

>  <LogP>  (160) 
1.5129199999999998

>  <RBs>  (160) 
4

>  <G_bound>  (160) 
-6.903056540231655

>  <G_unbound>  (160) 
0.38798893992369493

>  <deltaG>  (160) 
-7.291045480155351

>  <comRMSD>  (160) 
0.14817790350600016

>  <substructure_overlap_check>  (160) 
True

>  <energy_ratio_check>  (160) 
True

>  <const_energy/unconst_energy>  (160) 
2.32317389414586

>  <sucos>  (160) 
0.5808982014951733

>  <interactions>  (160) 
Hydrophobic_ASP-109,Hydrophobic_CYS-110,Hydrophobic_PRO-107,Hydrophobic_HIS-21,Hydrophobic_TYR-89,HBDonor_SER-125,Hydrophobic_VAL-124,Hydrophobic_TYR-90

>  <total_num_ints>  (160) 
8

>  <total_num_ints_nonhyd>  (160) 
1

>  <num_uniq_frag_ints>  (160) 
1

>  <num_repl_uniq_ints>  (160) 
1

>  <num_uniq_ints_lost>  (160) 
0

>  <num_new_uniq_ints>  (160) 
7

>  <int_check>  (160) 
True

>  <ref_url>  (160) 
https://pubs.acs.org/doi/10.1021/acs.jcim.3c00276?fig=tgr1&ref=pdf

>  <submitter_name>  (160) 
Steph Wills

>  <submitter_institution>  (160) 
University of Oxford

>  <submitter_email>  (160) 
stephanie.wills@balliol.ox.ac.uk

>  <generation_date>  (160) 
2023-11-23

>  <method>  (160) 
FragNetv2

>  <original SMILES>  (160) 
CCn1ncc(C)c1NC(=O)CSC

>  <original_name>  (160) 
x0556_0A-x0310_0A_8904_B1X_rgrp-0

>  <ref_mols>  (160) 
x0556_0A,x0310_0A

>  <ref_pdb>  (160) 
x0310_0A

>  <rationale>  (160) 
FragNet: 1 round bioisosteric merging incl c1cn[nH]c1 and CSCC(=O)N[Xe] replacing N#CCC(=O)N[Xe]

$$$$
x0556_0A-x0310_0A_316_PXX
     RDKit          3D

 15 16  0  0  0  0  0  0  0  0999 V2000
   12.0740   16.2030   22.4300 N   0  0  0  0  0  0  0  0  0  0  0  0
   12.0930   15.0630   22.5730 C   0  0  0  0  0  0  0  0  0  0  0  0
   12.0360   13.6290   22.7740 C   0  0  0  0  0  0  0  0  0  0  0  0
   10.8160   13.3040   23.5930 C   0  0  0  0  0  0  0  0  0  0  0  0
   10.6900   13.6880   24.7440 O   0  0  0  0  0  0  0  0  0  0  0  0
    9.8490   12.5510   22.9810 N   0  0  0  0  0  0  0  0  0  0  0  0
    8.9590   11.7570   23.8290 C   0  0  0  0  0  0  0  0  0  0  0  0
    9.0490   10.2730   23.8280 C   0  0  0  0  0  0  0  0  0  0  0  0
    8.1520    9.7810   24.6780 N   0  0  0  0  0  0  0  0  0  0  0  0
    7.5190   10.8710   25.2010 N   0  0  0  0  0  0  0  0  0  0  0  0
    6.4510   10.7360   26.1960 C   0  0  0  0  0  0  0  0  0  0  0  0
    6.4330   11.8830   27.2070 C   0  0  0  0  0  0  0  0  0  0  0  0
    5.3520   12.1150   27.9270 C   0  0  0  0  0  0  0  0  0  0  0  0
    6.2500   11.5980   28.8320 C   0  0  0  0  0  0  0  0  0  0  0  0
    7.9690   12.0720   24.7170 C   0  0  0  0  0  0  0  0  0  0  0  0
  1  2  3  0
  2  3  1  0
  3  4  1  0
  4  5  2  0
  4  6  1  0
  6  7  1  0
  7  8  1  0
  8  9  2  0
  9 10  1  0
 10 11  1  0
 11 12  1  0
 12 13  1  0
 13 14  1  0
 10 15  1  0
 15  7  2  0
 14 12  1  0
A    1
 N1 
A    2
 C1 
A    3
 C2 
A    4
 C3 
A    5
 O1 
A    6
 N2 
A    7
 C4 
A    8
 C5 
A    9
 N3 
A   10
 N4 
A   11
 C6 
A   12
 C7 
A   13
 C8 
A   14
 C9 
A   15
 C10
M  END
>  <similarity>  (161) 
NA

>  <smiles>  (161) 
N#CCC(=O)Nc1cnn(CC2CC2)c1

>  <cmpd_id>  (161) 
ENAMINE:Z1726613457

>  <used_subnode>  (161) 
NA

>  <used_synthon>  (161) 
NA

>  <ref_subnode>  (161) 
c1cn[nH]c1

>  <ref_synthon>  (161) 
N#CCC(=O)N[Xe]

>  <fragmentA>  (161) 
x0556_0A

>  <fragmentB>  (161) 
x0310_0A

>  <HA>  (161) 
15

>  <HBD>  (161) 
1

>  <HBA>  (161) 
4

>  <MW>  (161) 
204.101111004

>  <TPSA>  (161) 
70.71000000000001

>  <LogP>  (161) 
1.1452799999999999

>  <RBs>  (161) 
4

>  <G_bound>  (161) 
-5.282784618481864

>  <G_unbound>  (161) 
0.4003059726752539

>  <deltaG>  (161) 
-5.683090591157118

>  <comRMSD>  (161) 
0.9341899336927331

>  <substructure_overlap_check>  (161) 
True

>  <energy_ratio_check>  (161) 
True

>  <const_energy/unconst_energy>  (161) 
1.248202915999416

>  <sucos>  (161) 
0.5812534427400775

>  <interactions>  (161) 
Hydrophobic_HIS-21,Hydrophobic_PRO-107,HBDonor_SER-125

>  <total_num_ints>  (161) 
3

>  <total_num_ints_nonhyd>  (161) 
1

>  <num_uniq_frag_ints>  (161) 
1

>  <num_repl_uniq_ints>  (161) 
1

>  <num_uniq_ints_lost>  (161) 
0

>  <num_new_uniq_ints>  (161) 
2

>  <int_check>  (161) 
True

>  <ref_url>  (161) 
https://pubs.acs.org/doi/10.1021/acs.jcim.3c00276?fig=tgr1&ref=pdf

>  <submitter_name>  (161) 
Steph Wills

>  <submitter_institution>  (161) 
University of Oxford

>  <submitter_email>  (161) 
stephanie.wills@balliol.ox.ac.uk

>  <generation_date>  (161) 
2023-11-23

>  <method>  (161) 
FragNetv2

>  <original SMILES>  (161) 
N#CCC(=O)Nc1cnn(CC2CC2)c1

>  <original_name>  (161) 
x0556_0A-x0310_0A_316_PXX

>  <ref_mols>  (161) 
x0556_0A,x0310_0A

>  <ref_pdb>  (161) 
x0310_0A

>  <rationale>  (161) 
FragNet: perfect merge incl c1cn[nH]c1,N#CCC(=O)N[Xe]

$$$$
x0556_0A-x0310_0A_51227_B1X
     RDKit          3D

 16 17  0  0  0  0  0  0  0  0999 V2000
    7.7170   14.3990   25.4280 C   0  0  0  0  0  0  0  0  0  0  0  0
    7.7620   13.2140   24.9030 C   0  0  0  0  0  0  0  0  0  0  0  0
    8.0500   11.9660   24.6680 C   0  0  0  0  0  0  0  0  0  0  0  0
    7.5850   10.6530   25.1500 C   0  0  0  0  0  0  0  0  0  0  0  0
    8.2710    9.6310   24.5270 N   0  0  0  0  0  0  0  0  0  0  0  0
    9.1790   10.1960   23.6410 N   0  0  0  0  0  0  0  0  0  0  0  0
    9.9080    9.3060   22.9600 C   0  0  0  0  0  0  0  0  0  0  0  0
    9.1140   11.5180   23.6700 C   0  0  0  0  0  0  0  0  0  0  0  0
    9.8010   12.5090   22.9960 N   0  0  0  0  0  0  0  0  0  0  0  0
   10.4720   13.5530   23.7210 C   0  0  0  0  0  0  0  0  0  0  0  0
   10.1370   14.0000   24.7990 O   0  0  0  0  0  0  0  0  0  0  0  0
   11.6780   14.0590   23.0130 C   0  0  0  0  0  0  0  0  0  0  0  0
   12.9920   14.2050   23.7240 C   0  0  0  0  0  0  0  0  0  0  0  0
   11.6110   14.4640   21.5590 C   0  0  0  0  0  0  0  0  0  0  0  0
   12.2390   14.8980   20.5140 C   0  0  0  0  0  0  0  0  0  0  0  0
   10.6060   14.5960   20.4240 C   0  0  0  0  0  0  0  0  0  0  0  0
  1  2  1  0
  2  3  1  0
  3  4  1  0
  4  5  2  0
  5  6  1  0
  6  7  1  0
  6  8  1  0
  8  9  1  0
  9 10  1  0
 10 11  2  0
 10 12  1  0
 12 13  1  0
 12 14  2  3
 14 15  1  0
 15 16  1  0
  8  3  2  0
 16 14  1  0
A    1
 C1 
A    2
 C2 
A    3
 C3 
A    4
 C4 
A    5
 N1 
A    6
 N2 
A    7
 C5 
A    8
 C6 
A    9
 N3 
A   10
 C7 
A   11
 O1 
A   12
 C8 
A   13
 C9 
A   14
 C10
A   15
 C11
A   16
 C12
M  END
>  <similarity>  (162) 
1.0

>  <smiles>  (162) 
CCc1cnn(C)c1NC(=O)C(C)=C1CC1

>  <cmpd_id>  (162) 
ENAMINE:Z3626609752

>  <used_subnode>  (162) 
c1cn[nH]c1

>  <used_synthon>  (162) 
CC(C(=O)N[Xe])=C1CC1

>  <ref_subnode>  (162) 
c1cn[nH]c1

>  <ref_synthon>  (162) 
N#CCC(=O)N[Xe]

>  <fragmentA>  (162) 
x0556_0A

>  <fragmentB>  (162) 
x0310_0A

>  <HA>  (162) 
16

>  <HBD>  (162) 
1

>  <HBA>  (162) 
3

>  <MW>  (162) 
219.137162164

>  <TPSA>  (162) 
46.92

>  <LogP>  (162) 
2.0313

>  <RBs>  (162) 
3

>  <G_bound>  (162) 
-10.317483896381919

>  <G_unbound>  (162) 
0.213148828260198

>  <deltaG>  (162) 
-10.530632724642118

>  <comRMSD>  (162) 
0.9482341820542189

>  <UFFGibbs>  (162) 
332.40756100843714

>  <strain_per_HA>  (162) 
20.77547256302732

>  <substructure_overlap_check>  (162) 
True

>  <energy_ratio_check>  (162) 
True

>  <const_energy/unconst_energy>  (162) 
0.9997251395609561

>  <sucos>  (162) 
0.5835004452525068

>  <interactions>  (162) 
HBDonor_SER-125,Hydrophobic_TYR-90,Hydrophobic_HIS-21,Hydrophobic_PRO-107,Hydrophobic_TYR-89,Hydrophobic_THR-126

>  <total_num_ints>  (162) 
6

>  <total_num_ints_nonhyd>  (162) 
1

>  <num_uniq_frag_ints>  (162) 
1

>  <num_repl_uniq_ints>  (162) 
1

>  <num_uniq_ints_lost>  (162) 
0

>  <num_new_uniq_ints>  (162) 
5

>  <int_check>  (162) 
True

>  <ref_url>  (162) 
https://pubs.acs.org/doi/10.1021/acs.jcim.3c00276?fig=tgr1&ref=pdf

>  <submitter_name>  (162) 
Steph Wills

>  <submitter_institution>  (162) 
University of Oxford

>  <submitter_email>  (162) 
stephanie.wills@balliol.ox.ac.uk

>  <generation_date>  (162) 
2023-11-23

>  <method>  (162) 
FragNetv2

>  <original SMILES>  (162) 
CCc1cnn(C)c1NC(=O)C(C)=C1CC1

>  <original_name>  (162) 
x0556_0A-x0310_0A_51227_B1X

>  <ref_mols>  (162) 
x0556_0A,x0310_0A

>  <ref_pdb>  (162) 
x0310_0A

>  <rationale>  (162) 
FragNet: 1 round bioisosteric merging incl c1cn[nH]c1 and CC(C(=O)N[Xe])=C1CC1 replacing N#CCC(=O)N[Xe]

$$$$
x0556_0A-x0310_0A_11722_B1X_rgrp-1
     RDKit          3D

 15 15  0  0  0  0  0  0  0  0999 V2000
    6.4160   10.6940   26.0960 C   0  0  0  0  0  0  0  0  0  0  0  0
    7.5570   10.7340   25.1280 C   0  0  0  0  0  0  0  0  0  0  0  0
    8.1580   11.8500   24.6500 C   0  0  0  0  0  0  0  0  0  0  0  0
    9.1690   11.5650   23.7680 C   0  0  0  0  0  0  0  0  0  0  0  0
   10.0390   12.3500   23.0520 N   0  0  0  0  0  0  0  0  0  0  0  0
   10.8360   13.3020   23.7950 C   0  0  0  0  0  0  0  0  0  0  0  0
   10.4800   13.9560   24.7780 O   0  0  0  0  0  0  0  0  0  0  0  0
   12.2300   13.4150   23.2120 C   0  0  0  0  0  0  0  0  0  0  0  0
   12.6440   14.8610   23.1630 C   0  0  0  0  0  0  0  0  0  0  0  0
   12.2950   15.4320   21.8710 C   0  0  0  0  0  0  0  0  0  0  0  0
   11.8600   16.6950   22.0000 F   0  0  0  0  0  0  0  0  0  0  0  0
   13.4080   15.4740   21.1150 F   0  0  0  0  0  0  0  0  0  0  0  0
    9.1280   10.2130   23.7520 N   0  0  0  0  0  0  0  0  0  0  0  0
    9.9820    9.3540   22.9670 C   0  0  0  0  0  0  0  0  0  0  0  0
    8.1640    9.6730   24.5720 N   0  0  0  0  0  0  0  0  0  0  0  0
  1  2  1  0
  2  3  1  0
  3  4  2  0
  4  5  1  0
  5  6  1  0
  6  7  2  0
  6  8  1  0
  8  9  1  0
  9 10  1  0
 10 11  1  0
 10 12  1  0
  4 13  1  0
 13 14  1  0
 13 15  1  0
 15  2  2  0
A    1
 C1 
A    2
 C2 
A    3
 C3 
A    4
 C4 
A    5
 N1 
A    6
 C5 
A    7
 O1 
A    8
 C6 
A    9
 C7 
A   10
 C8 
A   11
 F1 
A   12
 F2 
A   13
 N2 
A   14
 C9 
A   15
 N3 
M  END
>  <similarity>  (163) 
1.0

>  <smiles>  (163) 
Cc1cc(NC(=O)CCC(F)F)n(C)n1

>  <cmpd_id>  (163) 
ENAMINE:Z1950192962

>  <used_subnode>  (163) 
c1cn[nH]c1

>  <used_synthon>  (163) 
O=C(CCC(F)F)N[Xe]

>  <ref_subnode>  (163) 
c1cn[nH]c1

>  <ref_synthon>  (163) 
N#CCC(=O)N[Xe]

>  <fragmentA>  (163) 
x0556_0A

>  <fragmentB>  (163) 
x0310_0A

>  <HA>  (163) 
15

>  <HBD>  (163) 
1

>  <HBA>  (163) 
3

>  <MW>  (163) 
217.102668476

>  <TPSA>  (163) 
46.92

>  <LogP>  (163) 
1.7123199999999998

>  <RBs>  (163) 
4

>  <G_bound>  (163) 
-8.154438035811179

>  <G_unbound>  (163) 
0.9331732031990996

>  <deltaG>  (163) 
-9.087611239010279

>  <comRMSD>  (163) 
0.22501533503005638

>  <substructure_overlap_check>  (163) 
True

>  <energy_ratio_check>  (163) 
True

>  <const_energy/unconst_energy>  (163) 
1.819012452648707

>  <sucos>  (163) 
0.585130022117491

>  <interactions>  (163) 
Hydrophobic_PRO-107,Hydrophobic_HIS-21,Hydrophobic_TYR-89,HBDonor_SER-125

>  <total_num_ints>  (163) 
4

>  <total_num_ints_nonhyd>  (163) 
1

>  <num_uniq_frag_ints>  (163) 
1

>  <num_repl_uniq_ints>  (163) 
1

>  <num_uniq_ints_lost>  (163) 
0

>  <num_new_uniq_ints>  (163) 
3

>  <int_check>  (163) 
True

>  <ref_url>  (163) 
https://pubs.acs.org/doi/10.1021/acs.jcim.3c00276?fig=tgr1&ref=pdf

>  <submitter_name>  (163) 
Steph Wills

>  <submitter_institution>  (163) 
University of Oxford

>  <submitter_email>  (163) 
stephanie.wills@balliol.ox.ac.uk

>  <generation_date>  (163) 
2023-11-23

>  <method>  (163) 
FragNetv2

>  <original SMILES>  (163) 
Cc1cc(NC(=O)CCC(F)F)n(C)n1

>  <original_name>  (163) 
x0556_0A-x0310_0A_11722_B1X_rgrp-1

>  <ref_mols>  (163) 
x0556_0A,x0310_0A

>  <ref_pdb>  (163) 
x0310_0A

>  <rationale>  (163) 
FragNet: 1 round bioisosteric merging incl c1cn[nH]c1 and O=C(CCC(F)F)N[Xe] replacing N#CCC(=O)N[Xe]

$$$$
x0556_0A-x0310_0A_241_PXX
     RDKit          3D

 17 18  0  0  0  0  0  0  0  0999 V2000
   12.0570   16.2200   22.4860 N   0  0  0  0  0  0  0  0  0  0  0  0
   12.1190   15.0800   22.6090 C   0  0  0  0  0  0  0  0  0  0  0  0
   12.1110   13.5710   22.7830 C   0  0  0  0  0  0  0  0  0  0  0  0
   10.8650   13.1250   23.5450 C   0  0  0  0  0  0  0  0  0  0  0  0
   10.5640   13.6070   24.6300 O   0  0  0  0  0  0  0  0  0  0  0  0
   10.0920   12.1500   22.9540 N   0  0  0  0  0  0  0  0  0  0  0  0
    9.1340   11.4320   23.7750 C   0  0  0  0  0  0  0  0  0  0  0  0
    8.0920   12.1900   24.5810 C   0  0  0  0  0  0  0  0  0  0  0  0
    7.3780   11.0230   25.2500 C   0  0  0  0  0  0  0  0  0  0  0  0
    6.2100   11.3360   26.2000 C   0  0  0  0  0  0  0  0  0  0  0  0
    5.6260   12.7200   25.9760 C   0  0  0  0  0  0  0  0  0  0  0  0
    4.4590   13.1060   26.8800 C   0  0  0  0  0  0  0  0  0  0  0  0
    4.0530   12.0090   27.8990 C   0  0  0  0  0  0  0  0  0  0  0  0
    4.6670   10.7720   28.0120 C   0  0  0  0  0  0  0  0  0  0  0  0
    5.7280   10.4460   27.1730 C   0  0  0  0  0  0  0  0  0  0  0  0
    7.9740    9.7680   24.8370 N   0  0  0  0  0  0  0  0  0  0  0  0
    8.9760   10.0880   23.9900 N   0  0  0  0  0  0  0  0  0  0  0  0
  1  2  3  0
  2  3  1  0
  3  4  1  0
  4  5  2  0
  4  6  1  0
  6  7  1  0
  7  8  2  0
  8  9  1  0
  9 10  1  0
 10 11  2  0
 11 12  1  0
 12 13  2  0
 13 14  1  0
 14 15  2  0
  9 16  2  0
 16 17  1  0
 17  7  1  0
 15 10  1  0
A    1
 N1 
A    2
 C1 
A    3
 C2 
A    4
 C3 
A    5
 O1 
A    6
 N2 
A    7
 C4 
A    8
 C5 
A    9
 C6 
A   10
 C7 
A   11
 C8 
A   12
 C9 
A   13
 C10
A   14
 C11
A   15
 C12
A   16
 N3 
A   17
 N4 
M  END
>  <similarity>  (164) 
NA

>  <smiles>  (164) 
N#CCC(=O)Nc1cc(-c2ccccc2)n[nH]1

>  <cmpd_id>  (164) 
ENAMINE:PV-002333312193,MOLPORT:007-602-000

>  <used_subnode>  (164) 
NA

>  <used_synthon>  (164) 
NA

>  <ref_subnode>  (164) 
c1cn[nH]c1

>  <ref_synthon>  (164) 
N#CCC(=O)N[Xe]

>  <fragmentA>  (164) 
x0556_0A

>  <fragmentB>  (164) 
x0310_0A

>  <HA>  (164) 
17

>  <HBD>  (164) 
2

>  <HBA>  (164) 
3

>  <MW>  (164) 
226.08546094

>  <TPSA>  (164) 
81.57

>  <LogP>  (164) 
1.9288799999999995

>  <RBs>  (164) 
3

>  <G_bound>  (164) 
-6.297886392921824

>  <G_unbound>  (164) 
0.3973117282134186

>  <deltaG>  (164) 
-6.695198121135243

>  <comRMSD>  (164) 
0.3390285359065825

>  <substructure_overlap_check>  (164) 
True

>  <energy_ratio_check>  (164) 
True

>  <const_energy/unconst_energy>  (164) 
2.5476259316140517

>  <sucos>  (164) 
0.5851883782249938

>  <interactions>  (164) 
Hydrophobic_HIS-21,Hydrophobic_PRO-107,HBDonor_SER-125

>  <total_num_ints>  (164) 
3

>  <total_num_ints_nonhyd>  (164) 
1

>  <num_uniq_frag_ints>  (164) 
1

>  <num_repl_uniq_ints>  (164) 
1

>  <num_uniq_ints_lost>  (164) 
0

>  <num_new_uniq_ints>  (164) 
2

>  <int_check>  (164) 
True

>  <ref_url>  (164) 
https://pubs.acs.org/doi/10.1021/acs.jcim.3c00276?fig=tgr1&ref=pdf

>  <submitter_name>  (164) 
Steph Wills

>  <submitter_institution>  (164) 
University of Oxford

>  <submitter_email>  (164) 
stephanie.wills@balliol.ox.ac.uk

>  <generation_date>  (164) 
2023-11-23

>  <method>  (164) 
FragNetv2

>  <original SMILES>  (164) 
N#CCC(=O)Nc1cc(-c2ccccc2)n[nH]1

>  <original_name>  (164) 
x0556_0A-x0310_0A_241_PXX

>  <ref_mols>  (164) 
x0556_0A,x0310_0A

>  <ref_pdb>  (164) 
x0310_0A

>  <rationale>  (164) 
FragNet: perfect merge incl c1cn[nH]c1,N#CCC(=O)N[Xe]

$$$$
x0556_0A-x0310_0A_52019_B1X
     RDKit          3D

 20 20  0  0  0  0  0  0  0  0999 V2000
    6.6490   12.3780   26.9550 C   0  0  0  0  0  0  0  0  0  0  0  0
    6.5440   11.0830   26.1720 C   0  0  0  0  0  0  0  0  0  0  0  0
    7.6550   10.9640   25.1260 C   0  0  0  0  0  0  0  0  0  0  0  0
    8.2810   12.2380   24.5600 C   0  0  0  0  0  0  0  0  0  0  0  0
    9.2950   11.6500   23.6060 C   0  0  0  0  0  0  0  0  0  0  0  0
   10.1030   12.5140   22.8730 N   0  0  0  0  0  0  0  0  0  0  0  0
   10.9170   13.4850   23.4430 C   0  0  0  0  0  0  0  0  0  0  0  0
   10.9410   13.7900   24.6310 O   0  0  0  0  0  0  0  0  0  0  0  0
   11.7320   14.1270   22.4570 C   0  0  1  0  0  0  0  0  0  0  0  0
   11.3250   14.3770   21.0830 C   0  0  0  0  0  0  0  0  0  0  0  0
   12.1410   15.4730   22.9640 C   0  0  0  0  0  0  0  0  0  0  0  0
   11.8280   16.6510   22.0680 C   0  0  0  0  0  0  0  0  0  0  0  0
   12.8950   13.3610   22.3990 C   0  0  0  0  0  0  0  0  0  0  0  0
   14.2720   13.9860   22.0950 C   0  0  0  0  0  0  0  0  0  0  0  0
   15.5150   13.4860   22.6500 C   0  0  0  0  0  0  0  0  0  0  0  0
   15.8260   12.5470   21.6390 C   0  0  0  0  0  0  0  0  0  0  0  0
   15.2580   12.7030   23.9380 C   0  0  0  0  0  0  0  0  0  0  0  0
    9.1900   10.2910   23.6780 N   0  0  0  0  0  0  0  0  0  0  0  0
    9.9180    9.3560   22.9700 C   0  0  0  0  0  0  0  0  0  0  0  0
    8.2290    9.8600   24.5730 N   0  0  0  0  0  0  0  0  0  0  0  0
  1  2  1  0
  2  3  1  0
  3  4  1  0
  4  5  2  0
  5  6  1  0
  6  7  1  0
  7  8  2  0
  7  9  1  0
  9 10  1  6
  9 11  1  0
 11 12  1  0
  9 13  1  0
 13 14  1  0
 14 15  1  0
 15 16  1  0
 15 17  1  0
  5 18  1  0
 18 19  1  0
 18 20  1  0
 20  3  2  0
A    1
 C1 
A    2
 C2 
A    3
 C3 
A    4
 C4 
A    5
 C5 
A    6
 N1 
A    7
 C6 
A    8
 O1 
A    9
 C7 
A   10
 C8 
A   11
 C9 
A   12
 C10
A   13
 C11
A   14
 C12
A   15
 C13
A   16
 C14
A   17
 C15
A   18
 N2 
A   19
 C16
A   20
 N3 
M  END
>  <similarity>  (165) 
1.0

>  <smiles>  (165) 
CCc1cc(NC(=O)C(C)(CC)CCC(C)C)n(C)n1

>  <cmpd_id>  (165) 
ENAMINE:PV-002731167591

>  <used_subnode>  (165) 
c1cn[nH]c1

>  <used_synthon>  (165) 
CCC(C)(CCC(C)C)C(=O)N[Xe]

>  <ref_subnode>  (165) 
c1cn[nH]c1

>  <ref_synthon>  (165) 
N#CCC(=O)N[Xe]

>  <fragmentA>  (165) 
x0556_0A

>  <fragmentB>  (165) 
x0310_0A

>  <HA>  (165) 
20

>  <HBD>  (165) 
1

>  <HBA>  (165) 
3

>  <MW>  (165) 
279.231062548

>  <TPSA>  (165) 
46.92

>  <LogP>  (165) 
3.773500000000003

>  <RBs>  (165) 
7

>  <G_bound>  (165) 
-12.575596384652021

>  <G_unbound>  (165) 
-0.1099966018366173

>  <deltaG>  (165) 
-12.465599782815405

>  <comRMSD>  (165) 
0.5870508580606149

>  <UFFGibbs>  (165) 
3234.9098406118846

>  <strain_per_HA>  (165) 
161.74549203059422

>  <substructure_overlap_check>  (165) 
True

>  <energy_ratio_check>  (165) 
True

>  <const_energy/unconst_energy>  (165) 
1.054985090277597

>  <sucos>  (165) 
0.5865989336228669

>  <interactions>  (165) 
HBDonor_SER-125,Hydrophobic_TYR-90,Hydrophobic_HIS-21,Hydrophobic_PRO-107,Hydrophobic_ASN-19,Hydrophobic_LEU-22,Hydrophobic_CYS-110,Hydrophobic_TYR-89

>  <total_num_ints>  (165) 
8

>  <total_num_ints_nonhyd>  (165) 
1

>  <num_uniq_frag_ints>  (165) 
1

>  <num_repl_uniq_ints>  (165) 
1

>  <num_uniq_ints_lost>  (165) 
0

>  <num_new_uniq_ints>  (165) 
7

>  <int_check>  (165) 
True

>  <ref_url>  (165) 
https://pubs.acs.org/doi/10.1021/acs.jcim.3c00276?fig=tgr1&ref=pdf

>  <submitter_name>  (165) 
Steph Wills

>  <submitter_institution>  (165) 
University of Oxford

>  <submitter_email>  (165) 
stephanie.wills@balliol.ox.ac.uk

>  <generation_date>  (165) 
2023-11-23

>  <method>  (165) 
FragNetv2

>  <original SMILES>  (165) 
CCc1cc(NC(=O)C(C)(CC)CCC(C)C)n(C)n1

>  <original_name>  (165) 
x0556_0A-x0310_0A_52019_B1X

>  <ref_mols>  (165) 
x0556_0A,x0310_0A

>  <ref_pdb>  (165) 
x0310_0A

>  <rationale>  (165) 
FragNet: 1 round bioisosteric merging incl c1cn[nH]c1 and CCC(C)(CCC(C)C)C(=O)N[Xe] replacing N#CCC(=O)N[Xe]

$$$$
x0556_0A-x0310_0A_207_PXX
     RDKit          3D

 18 18  0  0  0  0  0  0  0  0999 V2000
    3.4350    8.2350   27.5940 C   0  0  0  0  0  0  0  0  0  0  0  0
    3.8690    9.0310   28.7410 C   0  0  0  0  0  0  0  0  0  0  0  0
    4.5840   10.6050   28.2580 S   0  0  0  0  0  6  0  0  0  0  0  0
    3.5300   11.4640   27.7610 O   0  0  0  0  0  0  0  0  0  0  0  0
    5.4190   11.0460   29.3590 O   0  0  0  0  0  0  0  0  0  0  0  0
    5.6750   10.1860   26.9180 C   0  0  0  0  0  0  0  0  0  0  0  0
    6.2260   11.4070   26.2220 C   0  0  0  0  0  0  0  0  0  0  0  0
    7.3360   11.2040   25.2840 N   0  0  0  0  0  0  0  0  0  0  0  0
    7.9590   12.2450   24.7050 C   0  0  0  0  0  0  0  0  0  0  0  0
    8.9960   11.7060   23.8520 C   0  0  0  0  0  0  0  0  0  0  0  0
    9.9210   12.3750   23.0530 N   0  0  0  0  0  0  0  0  0  0  0  0
   10.8400   13.2530   23.6090 C   0  0  0  0  0  0  0  0  0  0  0  0
   10.7360   13.7560   24.7200 O   0  0  0  0  0  0  0  0  0  0  0  0
   12.0290   13.5860   22.7470 C   0  0  0  0  0  0  0  0  0  0  0  0
   12.0810   15.0820   22.5290 C   0  0  0  0  0  0  0  0  0  0  0  0
   12.0550   16.2200   22.3740 N   0  0  0  0  0  0  0  0  0  0  0  0
    8.8550   10.3270   24.0300 C   0  0  0  0  0  0  0  0  0  0  0  0
    7.8450   10.0110   24.9040 N   0  0  0  0  0  0  0  0  0  0  0  0
  1  2  1  0
  2  3  1  0
  3  4  2  0
  3  5  2  0
  3  6  1  0
  6  7  1  0
  7  8  1  0
  8  9  1  0
  9 10  2  0
 10 11  1  0
 11 12  1  0
 12 13  2  0
 12 14  1  0
 14 15  1  0
 15 16  3  0
 10 17  1  0
 17 18  2  0
 18  8  1  0
A    1
 C1 
A    2
 C2 
A    3
 S1 
A    4
 O1 
A    5
 O2 
A    6
 C3 
A    7
 C4 
A    8
 N1 
A    9
 C5 
A   10
 C6 
A   11
 N2 
A   12
 C7 
A   13
 O3 
A   14
 C8 
A   15
 C9 
A   16
 N3 
A   17
 C10
A   18
 N4 
M  END
>  <similarity>  (166) 
NA

>  <smiles>  (166) 
CCS(=O)(=O)CCn1cc(NC(=O)CC#N)cn1

>  <cmpd_id>  (166) 
ENAMINE:Z1726332759

>  <used_subnode>  (166) 
NA

>  <used_synthon>  (166) 
NA

>  <ref_subnode>  (166) 
c1cn[nH]c1

>  <ref_synthon>  (166) 
N#CCC(=O)N[Xe]

>  <fragmentA>  (166) 
x0556_0A

>  <fragmentB>  (166) 
x0310_0A

>  <HA>  (166) 
18

>  <HBD>  (166) 
1

>  <HBA>  (166) 
6

>  <MW>  (166) 
270.078661308

>  <TPSA>  (166) 
104.85000000000001

>  <LogP>  (166) 
0.16997999999999963

>  <RBs>  (166) 
6

>  <G_bound>  (166) 
-6.286271613019082

>  <G_unbound>  (166) 
0.4630911063092477

>  <deltaG>  (166) 
-6.74936271932833

>  <comRMSD>  (166) 
1.0292660593136367

>  <substructure_overlap_check>  (166) 
True

>  <energy_ratio_check>  (166) 
True

>  <const_energy/unconst_energy>  (166) 
3.1035295644922587

>  <sucos>  (166) 
0.5874451956050499

>  <interactions>  (166) 
Hydrophobic_HIS-21,Hydrophobic_PRO-107,HBDonor_SER-125

>  <total_num_ints>  (166) 
3

>  <total_num_ints_nonhyd>  (166) 
1

>  <num_uniq_frag_ints>  (166) 
1

>  <num_repl_uniq_ints>  (166) 
1

>  <num_uniq_ints_lost>  (166) 
0

>  <num_new_uniq_ints>  (166) 
2

>  <int_check>  (166) 
True

>  <ref_url>  (166) 
https://pubs.acs.org/doi/10.1021/acs.jcim.3c00276?fig=tgr1&ref=pdf

>  <submitter_name>  (166) 
Steph Wills

>  <submitter_institution>  (166) 
University of Oxford

>  <submitter_email>  (166) 
stephanie.wills@balliol.ox.ac.uk

>  <generation_date>  (166) 
2023-11-23

>  <method>  (166) 
FragNetv2

>  <original SMILES>  (166) 
CCS(=O)(=O)CCn1cc(NC(=O)CC#N)cn1

>  <original_name>  (166) 
x0556_0A-x0310_0A_207_PXX

>  <ref_mols>  (166) 
x0556_0A,x0310_0A

>  <ref_pdb>  (166) 
x0310_0A

>  <rationale>  (166) 
FragNet: perfect merge incl c1cn[nH]c1,N#CCC(=O)N[Xe]

$$$$
x0556_0A-x0310_0A_39828_B1X_rgrp-0
     RDKit          3D

 19 20  0  0  0  0  0  0  0  0999 V2000
   12.3150   15.6630   22.9500 C   0  0  0  0  0  0  0  0  0  0  0  0
   11.7760   14.5730   22.0630 C   0  0  0  0  0  0  0  0  0  0  0  0
   11.8500   13.4140   22.7790 C   0  0  0  0  0  0  0  0  0  0  0  0
   10.6870   13.3690   23.5990 C   0  0  0  0  0  0  0  0  0  0  0  0
   10.6070   13.8510   24.7220 O   0  0  0  0  0  0  0  0  0  0  0  0
    9.6250   12.6470   22.9160 N   0  0  0  0  0  0  0  0  0  0  0  0
    8.9400   11.7140   23.6790 C   0  0  0  0  0  0  0  0  0  0  0  0
    7.7430   12.0620   24.5550 C   0  0  0  0  0  0  0  0  0  0  0  0
    7.1110   13.4710   24.6900 C   0  0  0  0  0  0  0  0  0  0  0  0
    7.1740   13.6660   26.1970 C   0  0  0  0  0  0  0  0  0  0  0  0
    6.5920   14.9530   26.5900 C   0  0  0  0  0  0  0  0  0  0  0  0
    6.0040   15.9520   25.6120 C   0  0  0  0  0  0  0  0  0  0  0  0
    6.0390   15.5910   24.2390 C   0  0  0  0  0  0  0  0  0  0  0  0
    6.5810   14.3770   23.7740 C   0  0  0  0  0  0  0  0  0  0  0  0
    7.3910   10.8500   25.1460 C   0  0  0  0  0  0  0  0  0  0  0  0
    6.3190   10.5900   26.0850 C   0  0  0  0  0  0  0  0  0  0  0  0
    8.1870    9.8620   24.7250 N   0  0  0  0  0  0  0  0  0  0  0  0
    9.0840   10.4060   23.8540 N   0  0  0  0  0  0  0  0  0  0  0  0
   10.0290    9.4950   23.2630 C   0  0  0  0  0  0  0  0  0  0  0  0
  1  2  1  0
  2  3  1  0
  3  4  1  0
  4  5  2  0
  4  6  1  0
  6  7  1  0
  7  8  2  0
  8  9  1  0
  9 10  2  0
 10 11  1  0
 11 12  2  0
 12 13  1  0
 13 14  2  0
  8 15  1  0
 15 16  1  0
 15 17  2  0
 17 18  1  0
 18 19  1  0
 18  7  1  0
 14  9  1  0
A    1
 C1 
A    2
 C2 
A    3
 C3 
A    4
 C4 
A    5
 O1 
A    6
 N1 
A    7
 C5 
A    8
 C6 
A    9
 C7 
A   10
 C8 
A   11
 C9 
A   12
 C10
A   13
 C11
A   14
 C12
A   15
 C13
A   16
 C14
A   17
 N2 
A   18
 N3 
A   19
 C15
M  END
>  <similarity>  (167) 
1.0

>  <smiles>  (167) 
CCCC(=O)Nc1c(-c2ccccc2)c(C)nn1C

>  <cmpd_id>  (167) 
ENAMINE:Z1157963730

>  <used_subnode>  (167) 
c1cn[nH]c1

>  <used_synthon>  (167) 
CCCC(=O)N[Xe]

>  <ref_subnode>  (167) 
c1cn[nH]c1

>  <ref_synthon>  (167) 
N#CCC(=O)N[Xe]

>  <fragmentA>  (167) 
x0556_0A

>  <fragmentB>  (167) 
x0310_0A

>  <HA>  (167) 
19

>  <HBD>  (167) 
1

>  <HBA>  (167) 
3

>  <MW>  (167) 
257.152812228

>  <TPSA>  (167) 
46.92

>  <LogP>  (167) 
3.134120000000001

>  <RBs>  (167) 
4

>  <G_bound>  (167) 
-11.630384711775566

>  <G_unbound>  (167) 
0.13699442427353328

>  <deltaG>  (167) 
-11.7673791360491

>  <comRMSD>  (167) 
0.20654195445126947

>  <substructure_overlap_check>  (167) 
True

>  <energy_ratio_check>  (167) 
True

>  <const_energy/unconst_energy>  (167) 
2.839472832655843

>  <sucos>  (167) 
0.5891074034354614

>  <interactions>  (167) 
Hydrophobic_PRO-107,Hydrophobic_HIS-21,Hydrophobic_TYR-89,HBDonor_SER-125,Hydrophobic_GLU-85,Hydrophobic_TYR-90

>  <total_num_ints>  (167) 
6

>  <total_num_ints_nonhyd>  (167) 
1

>  <num_uniq_frag_ints>  (167) 
1

>  <num_repl_uniq_ints>  (167) 
1

>  <num_uniq_ints_lost>  (167) 
0

>  <num_new_uniq_ints>  (167) 
5

>  <int_check>  (167) 
True

>  <ref_url>  (167) 
https://pubs.acs.org/doi/10.1021/acs.jcim.3c00276?fig=tgr1&ref=pdf

>  <submitter_name>  (167) 
Steph Wills

>  <submitter_institution>  (167) 
University of Oxford

>  <submitter_email>  (167) 
stephanie.wills@balliol.ox.ac.uk

>  <generation_date>  (167) 
2023-11-23

>  <method>  (167) 
FragNetv2

>  <original SMILES>  (167) 
CCCC(=O)Nc1c(-c2ccccc2)c(C)nn1C

>  <original_name>  (167) 
x0556_0A-x0310_0A_39828_B1X_rgrp-0

>  <ref_mols>  (167) 
x0556_0A,x0310_0A

>  <ref_pdb>  (167) 
x0310_0A

>  <rationale>  (167) 
FragNet: 1 round bioisosteric merging incl c1cn[nH]c1 and CCCC(=O)N[Xe] replacing N#CCC(=O)N[Xe]

$$$$
x0556_0A-x0310_0A_39559_B1X_rgrp-0
     RDKit          3D

 15 15  0  0  0  0  0  0  0  0999 V2000
    6.4730   10.8040   26.1530 C   0  0  0  0  0  0  0  0  0  0  0  0
    7.6130   10.7840   25.1250 C   0  0  0  0  0  0  0  0  0  0  0  0
    8.1730   12.0770   24.6200 C   0  0  0  0  0  0  0  0  0  0  0  0
    9.2460   11.6960   23.6350 C   0  0  0  0  0  0  0  0  0  0  0  0
   10.1230   12.3980   22.8320 N   0  0  0  0  0  0  0  0  0  0  0  0
   10.8830   13.4490   23.2990 C   0  0  0  0  0  0  0  0  0  0  0  0
   10.8650   13.9140   24.4400 O   0  0  0  0  0  0  0  0  0  0  0  0
   11.6820   13.9250   22.2670 C   0  0  0  0  0  0  0  0  0  0  0  0
   12.5170   14.9510   22.6680 C   0  0  0  0  0  0  0  0  0  0  0  0
   13.3390   14.5330   23.6520 F   0  0  0  0  0  0  0  0  0  0  0  0
   13.2290   15.3970   21.6140 F   0  0  0  0  0  0  0  0  0  0  0  0
   11.8700   15.9960   23.1680 F   0  0  0  0  0  0  0  0  0  0  0  0
    9.1690   10.3180   23.6960 N   0  0  0  0  0  0  0  0  0  0  0  0
    9.8920    9.3620   23.0120 C   0  0  0  0  0  0  0  0  0  0  0  0
    8.2390    9.7370   24.5500 N   0  0  0  0  0  0  0  0  0  0  0  0
  1  2  1  0
  2  3  1  0
  3  4  2  0
  4  5  1  0
  5  6  1  0
  6  7  2  0
  6  8  1  0
  8  9  1  0
  9 10  1  0
  9 11  1  0
  9 12  1  0
  4 13  1  0
 13 14  1  0
 13 15  1  0
 15  2  2  0
A    1
 C1 
A    2
 C2 
A    3
 C3 
A    4
 C4 
A    5
 N1 
A    6
 C5 
A    7
 O1 
A    8
 C6 
A    9
 C7 
A   10
 F1 
A   11
 F2 
A   12
 F3 
A   13
 N2 
A   14
 C8 
A   15
 N3 
M  END
>  <similarity>  (168) 
1.0

>  <smiles>  (168) 
Cc1cc(NC(=O)CC(F)(F)F)n(C)n1

>  <cmpd_id>  (168) 
ENAMINE:Z393051624

>  <used_subnode>  (168) 
c1cn[nH]c1

>  <used_synthon>  (168) 
O=C(CC(F)(F)F)N[Xe]

>  <ref_subnode>  (168) 
c1cn[nH]c1

>  <ref_synthon>  (168) 
N#CCC(=O)N[Xe]

>  <fragmentA>  (168) 
x0556_0A

>  <fragmentB>  (168) 
x0310_0A

>  <HA>  (168) 
15

>  <HBD>  (168) 
1

>  <HBA>  (168) 
3

>  <MW>  (168) 
221.0775966

>  <TPSA>  (168) 
46.92

>  <LogP>  (168) 
1.6194199999999999

>  <RBs>  (168) 
2

>  <G_bound>  (168) 
-7.2448798543284365

>  <G_unbound>  (168) 
0.40273755357103047

>  <deltaG>  (168) 
-7.647617407899467

>  <comRMSD>  (168) 
0.22454508238979012

>  <substructure_overlap_check>  (168) 
True

>  <energy_ratio_check>  (168) 
True

>  <const_energy/unconst_energy>  (168) 
2.6479587095105415

>  <sucos>  (168) 
0.5922050761890738

>  <interactions>  (168) 
Hydrophobic_PRO-107,Hydrophobic_HIS-21,HBDonor_SER-125

>  <total_num_ints>  (168) 
3

>  <total_num_ints_nonhyd>  (168) 
1

>  <num_uniq_frag_ints>  (168) 
1

>  <num_repl_uniq_ints>  (168) 
1

>  <num_uniq_ints_lost>  (168) 
0

>  <num_new_uniq_ints>  (168) 
2

>  <int_check>  (168) 
True

>  <ref_url>  (168) 
https://pubs.acs.org/doi/10.1021/acs.jcim.3c00276?fig=tgr1&ref=pdf

>  <submitter_name>  (168) 
Steph Wills

>  <submitter_institution>  (168) 
University of Oxford

>  <submitter_email>  (168) 
stephanie.wills@balliol.ox.ac.uk

>  <generation_date>  (168) 
2023-11-23

>  <method>  (168) 
FragNetv2

>  <original SMILES>  (168) 
Cc1cc(NC(=O)CC(F)(F)F)n(C)n1

>  <original_name>  (168) 
x0556_0A-x0310_0A_39559_B1X_rgrp-0

>  <ref_mols>  (168) 
x0556_0A,x0310_0A

>  <ref_pdb>  (168) 
x0310_0A

>  <rationale>  (168) 
FragNet: 1 round bioisosteric merging incl c1cn[nH]c1 and O=C(CC(F)(F)F)N[Xe] replacing N#CCC(=O)N[Xe]

$$$$
x0556_0A-x0310_0A_36095_B1X
     RDKit          3D

 19 19  0  0  0  0  0  0  0  0999 V2000
   11.9370   13.5780   22.8060 C   0  0  0  0  0  0  0  0  0  0  0  0
   10.7170   13.2440   23.6590 C   0  0  0  0  0  0  0  0  0  0  0  0
   10.7880   13.8270   24.9550 O   0  0  0  0  0  0  0  0  0  0  0  0
    9.6710   12.4220   23.0700 N   0  0  0  0  0  0  0  0  0  0  0  0
    8.8470   11.7240   23.8940 C   0  0  0  0  0  0  0  0  0  0  0  0
    8.8970   10.3870   24.0780 N   0  0  0  0  0  0  0  0  0  0  0  0
    7.9390    9.9740   24.9640 N   0  0  0  0  0  0  0  0  0  0  0  0
    7.2140   11.0310   25.4040 C   0  0  0  0  0  0  0  0  0  0  0  0
    6.0620   10.9160   26.4010 C   0  0  0  0  0  0  0  0  0  0  0  0
    5.2900   12.0460   26.4700 O   0  0  0  0  0  0  0  0  0  0  0  0
    5.8080    9.7750   27.1760 N   0  0  0  0  0  0  0  0  0  0  0  0
    4.7810    9.5910   28.1090 C   0  0  0  0  0  0  0  0  0  0  0  0
    3.8450    8.4720   27.5850 C   0  0  2  0  0  0  0  0  0  0  0  0
    2.4550    8.6220   27.8200 C   0  0  0  0  0  0  0  0  0  0  0  0
    4.0790    7.1820   28.0010 C   0  0  0  0  0  0  0  0  0  0  0  0
    4.2430    6.7990   29.3060 O   0  0  0  0  0  0  0  0  0  0  0  0
    4.1160    6.2960   26.9710 O   0  0  0  0  0  0  0  0  0  0  0  0
    7.7070   12.1940   24.7870 C   0  0  0  0  0  0  0  0  0  0  0  0
    7.1030   13.9310   25.0060 Br  0  0  0  0  0  0  0  0  0  0  0  0
  1  2  1  0
  2  3  2  0
  2  4  1  0
  4  5  1  0
  5  6  1  0
  6  7  1  0
  7  8  2  0
  8  9  1  0
  9 10  2  0
  9 11  1  0
 11 12  1  0
 12 13  1  0
 13 14  1  1
 13 15  1  0
 15 16  2  0
 15 17  1  0
  8 18  1  0
 18 19  1  0
 18  5  2  0
A    1
 C1 
A    2
 C2 
A    3
 O1 
A    4
 N1 
A    5
 C3 
A    6
 N2 
A    7
 N3 
A    8
 C4 
A    9
 C5 
A   10
 O2 
A   11
 N4 
A   12
 C6 
A   13
 C7 
A   14
 C8 
A   15
 C9 
A   16
 O3 
A   17
 O4 
A   18
 C10
A   19
BR1 
M  END
>  <similarity>  (169) 
1.0

>  <smiles>  (169) 
CC(=O)Nc1[nH]nc(C(=O)NCC(C)C(=O)O)c1Br

>  <cmpd_id>  (169) 
ENAMINE:PV-003571548182

>  <used_subnode>  (169) 
c1cn[nH]c1

>  <used_synthon>  (169) 
CC(=O)N[Xe]

>  <ref_subnode>  (169) 
c1cn[nH]c1

>  <ref_synthon>  (169) 
N#CCC(=O)N[Xe]

>  <fragmentA>  (169) 
x0556_0A

>  <fragmentB>  (169) 
x0310_0A

>  <HA>  (169) 
19

>  <HBD>  (169) 
4

>  <HBA>  (169) 
4

>  <MW>  (169) 
332.01201699600006

>  <TPSA>  (169) 
124.17999999999999

>  <LogP>  (169) 
0.5811

>  <RBs>  (169) 
5

>  <G_bound>  (169) 
-6.438902720575617

>  <G_unbound>  (169) 
0.8637218391945253

>  <deltaG>  (169) 
-7.302624559770142

>  <comRMSD>  (169) 
0.8291317755871791

>  <UFFGibbs>  (169) 
145.44330103806533

>  <strain_per_HA>  (169) 
7.654910580950807

>  <substructure_overlap_check>  (169) 
True

>  <energy_ratio_check>  (169) 
True

>  <const_energy/unconst_energy>  (169) 
1.049855081535492

>  <sucos>  (169) 
0.5929021160326137

>  <interactions>  (169) 
Hydrophobic_HIS-21,HBAcceptor_SER-105,HBDonor_SER-105,Hydrophobic_PRO-107

>  <total_num_ints>  (169) 
4

>  <total_num_ints_nonhyd>  (169) 
2

>  <num_uniq_frag_ints>  (169) 
1

>  <num_repl_uniq_ints>  (169) 
1

>  <num_uniq_ints_lost>  (169) 
0

>  <num_new_uniq_ints>  (169) 
3

>  <int_check>  (169) 
True

>  <ref_url>  (169) 
https://pubs.acs.org/doi/10.1021/acs.jcim.3c00276?fig=tgr1&ref=pdf

>  <submitter_name>  (169) 
Steph Wills

>  <submitter_institution>  (169) 
University of Oxford

>  <submitter_email>  (169) 
stephanie.wills@balliol.ox.ac.uk

>  <generation_date>  (169) 
2023-11-23

>  <method>  (169) 
FragNetv2

>  <original SMILES>  (169) 
CC(=O)Nc1[nH]nc(C(=O)NCC(C)C(=O)O)c1Br

>  <original_name>  (169) 
x0556_0A-x0310_0A_36095_B1X

>  <ref_mols>  (169) 
x0556_0A,x0310_0A

>  <ref_pdb>  (169) 
x0310_0A

>  <rationale>  (169) 
FragNet: 1 round bioisosteric merging incl c1cn[nH]c1 and CC(=O)N[Xe] replacing N#CCC(=O)N[Xe]

$$$$
x0556_0A-x0310_0A_33577_B1X
     RDKit          3D

 19 19  0  0  0  0  0  0  0  0999 V2000
    5.7810   10.2990   26.9410 C   0  0  0  0  0  0  0  0  0  0  0  0
    6.3470   11.5590   26.3210 C   0  0  0  0  0  0  0  0  0  0  0  0
    6.7970   12.5470   27.4020 C   0  0  0  0  0  0  0  0  0  0  0  0
    7.4400   11.3040   25.2640 C   0  0  0  0  0  0  0  0  0  0  0  0
    8.0290   12.4860   24.5650 C   0  0  0  0  0  0  0  0  0  0  0  0
    9.0060   11.9340   23.5920 C   0  0  0  0  0  0  0  0  0  0  0  0
    9.7570   12.6510   22.7300 N   0  0  0  0  0  0  0  0  0  0  0  0
   10.8250   13.4240   23.2330 C   0  0  0  0  0  0  0  0  0  0  0  0
   10.9780   13.8020   24.3870 O   0  0  0  0  0  0  0  0  0  0  0  0
   11.6750   13.6890   22.1130 C   0  0  0  0  0  0  0  0  0  0  0  0
   12.1730   15.0770   22.2700 C   0  0  0  0  0  0  0  0  0  0  0  0
   12.6530   15.1310   23.6630 C   0  0  0  0  0  0  0  0  0  0  0  0
   13.1620   13.8370   24.1570 C   0  0  0  0  0  0  0  0  0  0  0  0
   13.9490   14.2070   25.3410 N   0  0  0  0  0  0  0  0  0  0  0  0
    8.9350   10.6070   23.7700 N   0  0  0  0  0  0  0  0  0  0  0  0
    9.6500    9.7360   23.0120 C   0  0  0  0  0  0  0  0  0  0  0  0
    9.0010    8.6750   23.2490 C   0  0  0  0  0  0  0  0  0  0  0  0
   10.7510    9.0590   23.3270 C   0  0  0  0  0  0  0  0  0  0  0  0
    8.0300   10.1690   24.7630 N   0  0  0  0  0  0  0  0  0  0  0  0
  1  2  1  0
  2  3  1  0
  2  4  1  0
  4  5  1  0
  5  6  2  0
  6  7  1  0
  7  8  1  0
  8  9  2  0
  8 10  1  0
 10 11  1  0
 11 12  1  0
 12 13  1  0
 13 14  3  0
  6 15  1  0
 15 16  1  0
 16 17  1  0
 16 18  1  0
 15 19  1  0
 19  4  2  0
A    1
 C1 
A    2
 C2 
A    3
 C3 
A    4
 C4 
A    5
 C5 
A    6
 C6 
A    7
 N1 
A    8
 C7 
A    9
 O1 
A   10
 C8 
A   11
 C9 
A   12
 C10
A   13
 C11
A   14
 N2 
A   15
 N3 
A   16
 C12
A   17
 C13
A   18
 C14
A   19
 N4 
M  END
>  <similarity>  (170) 
1.0

>  <smiles>  (170) 
CC(C)c1cc(NC(=O)CCCC#N)n(C(C)C)n1

>  <cmpd_id>  (170) 
ENAMINE:Z2186781749

>  <used_subnode>  (170) 
c1cn[nH]c1

>  <used_synthon>  (170) 
N#CCCCC(=O)N[Xe]

>  <ref_subnode>  (170) 
c1cn[nH]c1

>  <ref_synthon>  (170) 
N#CCC(=O)N[Xe]

>  <fragmentA>  (170) 
x0556_0A

>  <fragmentB>  (170) 
x0310_0A

>  <HA>  (170) 
19

>  <HBD>  (170) 
1

>  <HBA>  (170) 
4

>  <MW>  (170) 
262.179361324

>  <TPSA>  (170) 
70.71000000000001

>  <LogP>  (170) 
3.219780000000002

>  <RBs>  (170) 
6

>  <G_bound>  (170) 
-6.406712209751625

>  <G_unbound>  (170) 
0.13623499383864604

>  <deltaG>  (170) 
-6.542947203590271

>  <comRMSD>  (170) 
0.6295941984949519

>  <UFFGibbs>  (170) 
280469.774454268

>  <strain_per_HA>  (170) 
14761.567076540421

>  <substructure_overlap_check>  (170) 
True

>  <energy_ratio_check>  (170) 
True

>  <const_energy/unconst_energy>  (170) 
1.0164547954683631

>  <sucos>  (170) 
0.5962905222252537

>  <interactions>  (170) 
HBDonor_SER-125,Hydrophobic_TYR-90,Hydrophobic_HIS-21,Hydrophobic_PRO-107,Hydrophobic_CYS-110,Hydrophobic_VAL-124,Hydrophobic_TYR-89,Hydrophobic_ASP-109

>  <total_num_ints>  (170) 
8

>  <total_num_ints_nonhyd>  (170) 
1

>  <num_uniq_frag_ints>  (170) 
1

>  <num_repl_uniq_ints>  (170) 
1

>  <num_uniq_ints_lost>  (170) 
0

>  <num_new_uniq_ints>  (170) 
7

>  <int_check>  (170) 
True

>  <ref_url>  (170) 
https://pubs.acs.org/doi/10.1021/acs.jcim.3c00276?fig=tgr1&ref=pdf

>  <submitter_name>  (170) 
Steph Wills

>  <submitter_institution>  (170) 
University of Oxford

>  <submitter_email>  (170) 
stephanie.wills@balliol.ox.ac.uk

>  <generation_date>  (170) 
2023-11-23

>  <method>  (170) 
FragNetv2

>  <original SMILES>  (170) 
CC(C)c1cc(NC(=O)CCCC#N)n(C(C)C)n1

>  <original_name>  (170) 
x0556_0A-x0310_0A_33577_B1X

>  <ref_mols>  (170) 
x0556_0A,x0310_0A

>  <ref_pdb>  (170) 
x0310_0A

>  <rationale>  (170) 
FragNet: 1 round bioisosteric merging incl c1cn[nH]c1 and N#CCCCC(=O)N[Xe] replacing N#CCC(=O)N[Xe]

$$$$
x0556_0A-x0310_0A_56359_B1X_rgrp-0
     RDKit          3D

 19 19  0  0  0  0  0  0  0  0999 V2000
    5.4820    9.3040   28.8230 C   0  0  0  0  0  0  0  0  0  0  0  0
    4.9160   10.1910   27.7620 C   0  0  0  0  0  0  0  0  0  0  0  0
    5.4400   10.2530   26.6480 O   0  0  0  0  0  0  0  0  0  0  0  0
    6.2110   11.3660   26.4110 C   0  0  0  0  0  0  0  0  0  0  0  0
    6.0130   12.4270   26.9980 O   0  0  0  0  0  0  0  0  0  0  0  0
    7.2260   11.1880   25.4480 C   0  0  0  0  0  0  0  0  0  0  0  0
    7.8290   12.2480   24.7950 C   0  0  0  0  0  0  0  0  0  0  0  0
    8.8100   11.6160   23.8840 C   0  0  0  0  0  0  0  0  0  0  0  0
    9.6240   12.3490   23.0360 N   0  0  0  0  0  0  0  0  0  0  0  0
   10.3390   13.4520   23.3970 C   0  0  0  0  0  0  0  0  0  0  0  0
   10.5020   13.8040   24.5610 O   0  0  0  0  0  0  0  0  0  0  0  0
   10.9740   14.2880   22.3100 C   0  0  0  0  0  0  0  0  0  0  0  0
   10.0140   14.7460   20.7570 Br  0  0  0  0  0  0  0  0  0  0  0  0
   12.3870   14.6150   22.7200 C   0  0  0  0  0  0  0  0  0  0  0  0
   13.0840   15.4470   21.6560 C   0  0  0  0  0  0  0  0  0  0  0  0
   13.1680   14.2340   24.0040 C   0  0  0  0  0  0  0  0  0  0  0  0
    8.7860   10.3210   23.9940 N   0  0  0  0  0  0  0  0  0  0  0  0
    9.6230    9.3990   23.2220 C   0  0  0  0  0  0  0  0  0  0  0  0
    7.8280    9.9650   24.9530 N   0  0  0  0  0  0  0  0  0  0  0  0
  1  2  1  0
  2  3  1  0
  3  4  1  0
  4  5  2  0
  4  6  1  0
  6  7  1  0
  7  8  2  0
  8  9  1  0
  9 10  1  0
 10 11  2  0
 10 12  1  0
 12 13  1  0
 12 14  2  3
 14 15  1  0
 14 16  1  0
  8 17  1  0
 17 18  1  0
 17 19  1  0
 19  6  2  0
A    1
 C1 
A    2
 C2 
A    3
 O1 
A    4
 C3 
A    5
 O2 
A    6
 C4 
A    7
 C5 
A    8
 C6 
A    9
 N1 
A   10
 C7 
A   11
 O3 
A   12
 C8 
A   13
BR1 
A   14
 C9 
A   15
 C10
A   16
 C11
A   17
 N2 
A   18
 C12
A   19
 N3 
M  END
>  <similarity>  (171) 
1.0

>  <smiles>  (171) 
CCOC(=O)c1cc(NC(=O)C(Br)=C(C)C)n(C)n1

>  <cmpd_id>  (171) 
ENAMINE:Z4101294730

>  <used_subnode>  (171) 
c1cn[nH]c1

>  <used_synthon>  (171) 
CC(C)=C(Br)C(=O)N[Xe]

>  <ref_subnode>  (171) 
c1cn[nH]c1

>  <ref_synthon>  (171) 
N#CCC(=O)N[Xe]

>  <fragmentA>  (171) 
x0556_0A

>  <fragmentB>  (171) 
x0310_0A

>  <HA>  (171) 
19

>  <HBD>  (171) 
1

>  <HBA>  (171) 
5

>  <MW>  (171) 
329.037503472

>  <TPSA>  (171) 
73.22

>  <LogP>  (171) 
2.2241

>  <RBs>  (171) 
4

>  <G_bound>  (171) 
-10.674366989721072

>  <G_unbound>  (171) 
0.24641006251931785

>  <deltaG>  (171) 
-10.92077705224039

>  <comRMSD>  (171) 
0.2850070363127348

>  <substructure_overlap_check>  (171) 
True

>  <energy_ratio_check>  (171) 
True

>  <const_energy/unconst_energy>  (171) 
2.985641944227827

>  <sucos>  (171) 
0.6000368481710064

>  <interactions>  (171) 
Hydrophobic_GLU-106,Hydrophobic_PRO-107,Hydrophobic_HIS-21,Hydrophobic_TYR-89,HBDonor_SER-125,Hydrophobic_TYR-90,Hydrophobic_THR-126

>  <total_num_ints>  (171) 
7

>  <total_num_ints_nonhyd>  (171) 
1

>  <num_uniq_frag_ints>  (171) 
1

>  <num_repl_uniq_ints>  (171) 
1

>  <num_uniq_ints_lost>  (171) 
0

>  <num_new_uniq_ints>  (171) 
6

>  <int_check>  (171) 
True

>  <ref_url>  (171) 
https://pubs.acs.org/doi/10.1021/acs.jcim.3c00276?fig=tgr1&ref=pdf

>  <submitter_name>  (171) 
Steph Wills

>  <submitter_institution>  (171) 
University of Oxford

>  <submitter_email>  (171) 
stephanie.wills@balliol.ox.ac.uk

>  <generation_date>  (171) 
2023-11-23

>  <method>  (171) 
FragNetv2

>  <original SMILES>  (171) 
CCOC(=O)c1cc(NC(=O)C(Br)=C(C)C)n(C)n1

>  <original_name>  (171) 
x0556_0A-x0310_0A_56359_B1X_rgrp-0

>  <ref_mols>  (171) 
x0556_0A,x0310_0A

>  <ref_pdb>  (171) 
x0310_0A

>  <rationale>  (171) 
FragNet: 1 round bioisosteric merging incl c1cn[nH]c1 and CC(C)=C(Br)C(=O)N[Xe] replacing N#CCC(=O)N[Xe]

$$$$
x0556_0A-x0310_0A_21908_B1X
     RDKit          3D

 16 16  0  0  0  0  0  0  0  0999 V2000
    6.6920   13.8520   24.6120 C   0  0  0  0  0  0  0  0  0  0  0  0
    7.8900   13.2400   25.3110 C   0  0  0  0  0  0  0  0  0  0  0  0
    8.0490   11.7890   24.9610 C   0  0  0  0  0  0  0  0  0  0  0  0
    7.4730   10.6400   25.2460 C   0  0  0  0  0  0  0  0  0  0  0  0
    8.0420    9.4630   24.6070 N   0  0  0  0  0  0  0  0  0  0  0  0
    9.0680    9.9260   23.8430 N   0  0  0  0  0  0  0  0  0  0  0  0
    9.8670    9.1200   23.0420 C   0  0  0  0  0  0  0  0  0  0  0  0
    9.1770   11.3780   24.0040 C   0  0  0  0  0  0  0  0  0  0  0  0
   10.1150   12.0430   23.3810 N   0  0  0  0  0  0  0  0  0  0  0  0
   10.4370   13.2820   23.5310 C   0  0  0  0  0  0  0  0  0  0  0  0
   10.8180   13.8950   24.5270 O   0  0  0  0  0  0  0  0  0  0  0  0
   10.2610   13.8180   22.2790 C   0  0  0  0  0  0  0  0  0  0  0  0
   11.0500   14.9430   21.7800 C   0  0  0  0  0  0  0  0  0  0  0  0
   12.0790   15.5880   22.6120 C   0  0  0  0  0  0  0  0  0  0  0  0
   13.3870   14.9170   22.4390 C   0  0  0  0  0  0  0  0  0  0  0  0
   12.0030   16.9150   21.9700 C   0  0  0  0  0  0  0  0  0  0  0  0
  1  2  1  0
  2  3  1  0
  3  4  1  0
  4  5  2  0
  5  6  1  0
  6  7  1  0
  6  8  1  0
  8  9  1  0
  9 10  1  0
 10 11  2  0
 10 12  1  0
 12 13  2  3
 13 14  1  0
 14 15  1  0
 14 16  1  0
  8  3  2  0
A    1
 C1 
A    2
 C2 
A    3
 C3 
A    4
 C4 
A    5
 N1 
A    6
 N2 
A    7
 C5 
A    8
 C6 
A    9
 N3 
A   10
 C7 
A   11
 O1 
A   12
 C8 
A   13
 C9 
A   14
 C10
A   15
 C11
A   16
 C12
M  END
>  <similarity>  (172) 
1.0

>  <smiles>  (172) 
CCc1cnn(C)c1NC(=O)C=CC(C)C

>  <cmpd_id>  (172) 
ENAMINE:Z3626597953

>  <used_subnode>  (172) 
c1cn[nH]c1

>  <used_synthon>  (172) 
CC(C)C=CC(=O)N[Xe]

>  <ref_subnode>  (172) 
c1cn[nH]c1

>  <ref_synthon>  (172) 
N#CCC(=O)N[Xe]

>  <fragmentA>  (172) 
x0556_0A

>  <fragmentB>  (172) 
x0310_0A

>  <HA>  (172) 
16

>  <HBD>  (172) 
1

>  <HBA>  (172) 
3

>  <MW>  (172) 
221.152812228

>  <TPSA>  (172) 
46.92

>  <LogP>  (172) 
2.1331999999999995

>  <RBs>  (172) 
4

>  <G_bound>  (172) 
-7.089346237321237

>  <G_unbound>  (172) 
0.42030528037874576

>  <deltaG>  (172) 
-7.509651517699983

>  <comRMSD>  (172) 
0.8460167695823066

>  <UFFGibbs>  (172) 
199.50137402405701

>  <strain_per_HA>  (172) 
12.468835876503563

>  <substructure_overlap_check>  (172) 
True

>  <energy_ratio_check>  (172) 
True

>  <const_energy/unconst_energy>  (172) 
1.064641801495118

>  <sucos>  (172) 
0.6002104288594547

>  <interactions>  (172) 
HBDonor_SER-125,Hydrophobic_TYR-90,Hydrophobic_HIS-21,Hydrophobic_PRO-107,Hydrophobic_TYR-89

>  <total_num_ints>  (172) 
5

>  <total_num_ints_nonhyd>  (172) 
1

>  <num_uniq_frag_ints>  (172) 
1

>  <num_repl_uniq_ints>  (172) 
1

>  <num_uniq_ints_lost>  (172) 
0

>  <num_new_uniq_ints>  (172) 
4

>  <int_check>  (172) 
True

>  <ref_url>  (172) 
https://pubs.acs.org/doi/10.1021/acs.jcim.3c00276?fig=tgr1&ref=pdf

>  <submitter_name>  (172) 
Steph Wills

>  <submitter_institution>  (172) 
University of Oxford

>  <submitter_email>  (172) 
stephanie.wills@balliol.ox.ac.uk

>  <generation_date>  (172) 
2023-11-23

>  <method>  (172) 
FragNetv2

>  <original SMILES>  (172) 
CCc1cnn(C)c1NC(=O)C=CC(C)C

>  <original_name>  (172) 
x0556_0A-x0310_0A_21908_B1X

>  <ref_mols>  (172) 
x0556_0A,x0310_0A

>  <ref_pdb>  (172) 
x0310_0A

>  <rationale>  (172) 
FragNet: 1 round bioisosteric merging incl c1cn[nH]c1 and CC(C)C=CC(=O)N[Xe] replacing N#CCC(=O)N[Xe]

$$$$
x0556_0A-x0310_0A_31172_B1X_rgrp-0
     RDKit          3D

 16 16  0  0  0  0  0  0  0  0999 V2000
    7.1660   14.0860   23.3790 C   0  0  0  0  0  0  0  0  0  0  0  0
    7.3880   13.4070   24.6990 C   0  0  0  0  0  0  0  0  0  0  0  0
    7.8200   12.0890   24.5960 C   0  0  0  0  0  0  0  0  0  0  0  0
    7.3700   10.9800   25.2430 C   0  0  0  0  0  0  0  0  0  0  0  0
    8.0750    9.8790   24.8330 N   0  0  0  0  0  0  0  0  0  0  0  0
    8.9980   10.3050   23.9000 N   0  0  0  0  0  0  0  0  0  0  0  0
    9.8750    9.3080   23.3020 C   0  0  0  0  0  0  0  0  0  0  0  0
    8.9470   11.6700   23.6640 C   0  0  0  0  0  0  0  0  0  0  0  0
    9.6930   12.4730   22.8200 N   0  0  0  0  0  0  0  0  0  0  0  0
   10.6790   13.3420   23.4120 C   0  0  0  0  0  0  0  0  0  0  0  0
   10.7710   13.6660   24.6020 O   0  0  0  0  0  0  0  0  0  0  0  0
   11.6010   13.8210   22.3200 C   0  0  0  0  0  0  0  0  0  0  0  0
   12.5670   14.8290   22.8660 C   0  0  0  0  0  0  0  0  0  0  0  0
   11.8730   15.7970   23.4780 F   0  0  0  0  0  0  0  0  0  0  0  0
   13.2630   15.4260   21.8860 F   0  0  0  0  0  0  0  0  0  0  0  0
   13.3570   14.2950   23.8110 F   0  0  0  0  0  0  0  0  0  0  0  0
  1  2  1  0
  2  3  1  0
  3  4  1  0
  4  5  2  0
  5  6  1  0
  6  7  1  0
  6  8  1  0
  8  9  1  0
  9 10  1  0
 10 11  2  0
 10 12  1  0
 12 13  1  0
 13 14  1  0
 13 15  1  0
 13 16  1  0
  8  3  2  0
A    1
 C1 
A    2
 C2 
A    3
 C3 
A    4
 C4 
A    5
 N1 
A    6
 N2 
A    7
 C5 
A    8
 C6 
A    9
 N3 
A   10
 C7 
A   11
 O1 
A   12
 C8 
A   13
 C9 
A   14
 F1 
A   15
 F2 
A   16
 F3 
M  END
>  <similarity>  (173) 
1.0

>  <smiles>  (173) 
CCc1cnn(C)c1NC(=O)CC(F)(F)F

>  <cmpd_id>  (173) 
ENAMINE:Z3626604255

>  <used_subnode>  (173) 
c1cn[nH]c1

>  <used_synthon>  (173) 
O=C(CC(F)(F)F)N[Xe]

>  <ref_subnode>  (173) 
c1cn[nH]c1

>  <ref_synthon>  (173) 
N#CCC(=O)N[Xe]

>  <fragmentA>  (173) 
x0556_0A

>  <fragmentB>  (173) 
x0310_0A

>  <HA>  (173) 
16

>  <HBD>  (173) 
1

>  <HBA>  (173) 
3

>  <MW>  (173) 
235.093246664

>  <TPSA>  (173) 
46.92

>  <LogP>  (173) 
1.8734

>  <RBs>  (173) 
3

>  <G_bound>  (173) 
-6.5043129586724255

>  <G_unbound>  (173) 
0.5751947384562163

>  <deltaG>  (173) 
-7.0795076971286415

>  <comRMSD>  (173) 
0.18863021082420506

>  <substructure_overlap_check>  (173) 
True

>  <energy_ratio_check>  (173) 
True

>  <const_energy/unconst_energy>  (173) 
2.189396163626851

>  <sucos>  (173) 
0.6009910234680276

>  <interactions>  (173) 
Hydrophobic_PRO-107,Hydrophobic_HIS-21,HBDonor_SER-125

>  <total_num_ints>  (173) 
3

>  <total_num_ints_nonhyd>  (173) 
1

>  <num_uniq_frag_ints>  (173) 
1

>  <num_repl_uniq_ints>  (173) 
1

>  <num_uniq_ints_lost>  (173) 
0

>  <num_new_uniq_ints>  (173) 
2

>  <int_check>  (173) 
True

>  <ref_url>  (173) 
https://pubs.acs.org/doi/10.1021/acs.jcim.3c00276?fig=tgr1&ref=pdf

>  <submitter_name>  (173) 
Steph Wills

>  <submitter_institution>  (173) 
University of Oxford

>  <submitter_email>  (173) 
stephanie.wills@balliol.ox.ac.uk

>  <generation_date>  (173) 
2023-11-23

>  <method>  (173) 
FragNetv2

>  <original SMILES>  (173) 
CCc1cnn(C)c1NC(=O)CC(F)(F)F

>  <original_name>  (173) 
x0556_0A-x0310_0A_31172_B1X_rgrp-0

>  <ref_mols>  (173) 
x0556_0A,x0310_0A

>  <ref_pdb>  (173) 
x0310_0A

>  <rationale>  (173) 
FragNet: 1 round bioisosteric merging incl c1cn[nH]c1 and O=C(CC(F)(F)F)N[Xe] replacing N#CCC(=O)N[Xe]

$$$$
x0556_0A-x0310_0A_403_PXX
     RDKit          3D

 17 17  0  0  0  0  0  0  0  0999 V2000
    6.3010   13.9340   24.7220 C   0  0  0  0  0  0  0  0  0  0  0  0
    7.6810   13.6800   25.1270 C   0  0  0  0  0  0  0  0  0  0  0  0
    7.9960   12.2350   24.8170 C   0  0  0  0  0  0  0  0  0  0  0  0
    9.0360   11.7310   23.8790 C   0  0  0  0  0  0  0  0  0  0  0  0
    9.9530   12.4170   23.0810 N   0  0  0  0  0  0  0  0  0  0  0  0
   10.8750   13.2740   23.6370 C   0  0  0  0  0  0  0  0  0  0  0  0
   10.7780   13.7820   24.7470 O   0  0  0  0  0  0  0  0  0  0  0  0
   11.9620   13.5460   22.8410 C   0  0  0  0  0  0  0  0  0  0  0  0
   12.0670   15.0290   22.6260 C   0  0  0  0  0  0  0  0  0  0  0  0
   12.0870   16.1680   22.4690 N   0  0  0  0  0  0  0  0  0  0  0  0
    8.8760   10.3510   23.9980 C   0  0  0  0  0  0  0  0  0  0  0  0
    7.8300    9.9920   24.9280 N   0  0  0  0  0  0  0  0  0  0  0  0
    7.3510   11.1690   25.3730 N   0  0  0  0  0  0  0  0  0  0  0  0
    6.3070   11.2750   26.2990 C   0  0  0  0  0  0  0  0  0  0  0  0
    6.0050   10.5250   27.4480 C   0  0  0  0  0  0  0  0  0  0  0  0
    4.6720   10.1840   27.6320 C   0  0  0  0  0  0  0  0  0  0  0  0
    6.3380   10.8220   28.7590 C   0  0  0  0  0  0  0  0  0  0  0  0
  1  2  1  0
  2  3  1  0
  3  4  2  0
  4  5  1  0
  5  6  1  0
  6  7  2  0
  6  8  1  0
  8  9  1  0
  9 10  3  0
  4 11  1  0
 11 12  2  0
 12 13  1  0
 13 14  1  0
 14 15  1  0
 15 16  1  0
 15 17  1  0
 13  3  1  0
A    1
 C1 
A    2
 C2 
A    3
 C3 
A    4
 C4 
A    5
 N1 
A    6
 C5 
A    7
 O1 
A    8
 C6 
A    9
 C7 
A   10
 N2 
A   11
 C8 
A   12
 N3 
A   13
 N4 
A   14
 C9 
A   15
 C10
A   16
 C11
A   17
 C12
M  END
>  <similarity>  (174) 
NA

>  <smiles>  (174) 
CCc1c(NC(=O)CC#N)cnn1CC(C)C

>  <cmpd_id>  (174) 
ENAMINE:Z1727341322

>  <used_subnode>  (174) 
NA

>  <used_synthon>  (174) 
NA

>  <ref_subnode>  (174) 
c1cn[nH]c1

>  <ref_synthon>  (174) 
N#CCC(=O)N[Xe]

>  <fragmentA>  (174) 
x0556_0A

>  <fragmentB>  (174) 
x0310_0A

>  <HA>  (174) 
17

>  <HBD>  (174) 
1

>  <HBA>  (174) 
4

>  <MW>  (174) 
234.148061196

>  <TPSA>  (174) 
70.71000000000001

>  <LogP>  (174) 
1.9536799999999999

>  <RBs>  (174) 
5

>  <G_bound>  (174) 
-6.86633730980725

>  <G_unbound>  (174) 
-0.35788452526423076

>  <deltaG>  (174) 
-6.508452784543019

>  <comRMSD>  (174) 
1.306134329598271

>  <substructure_overlap_check>  (174) 
True

>  <energy_ratio_check>  (174) 
True

>  <const_energy/unconst_energy>  (174) 
4.782958979023466

>  <sucos>  (174) 
0.6041982932737996

>  <interactions>  (174) 
Hydrophobic_HIS-21,Hydrophobic_PRO-107,HBDonor_SER-125

>  <total_num_ints>  (174) 
3

>  <total_num_ints_nonhyd>  (174) 
1

>  <num_uniq_frag_ints>  (174) 
1

>  <num_repl_uniq_ints>  (174) 
1

>  <num_uniq_ints_lost>  (174) 
0

>  <num_new_uniq_ints>  (174) 
2

>  <int_check>  (174) 
True

>  <ref_url>  (174) 
https://pubs.acs.org/doi/10.1021/acs.jcim.3c00276?fig=tgr1&ref=pdf

>  <submitter_name>  (174) 
Steph Wills

>  <submitter_institution>  (174) 
University of Oxford

>  <submitter_email>  (174) 
stephanie.wills@balliol.ox.ac.uk

>  <generation_date>  (174) 
2023-11-23

>  <method>  (174) 
FragNetv2

>  <original SMILES>  (174) 
CCc1c(NC(=O)CC#N)cnn1CC(C)C

>  <original_name>  (174) 
x0556_0A-x0310_0A_403_PXX

>  <ref_mols>  (174) 
x0556_0A,x0310_0A

>  <ref_pdb>  (174) 
x0310_0A

>  <rationale>  (174) 
FragNet: perfect merge incl c1cn[nH]c1,N#CCC(=O)N[Xe]

$$$$
x0556_0A-x0310_0A_54279_B1X
     RDKit          3D

 18 18  0  0  0  0  0  0  0  0999 V2000
   10.7910    8.7630   23.2200 C   0  0  0  0  0  0  0  0  0  0  0  0
    9.4630    9.3460   22.9370 C   0  0  0  0  0  0  0  0  0  0  0  0
    8.8420   10.2740   23.8340 N   0  0  0  0  0  0  0  0  0  0  0  0
    7.9250    9.7870   24.6920 N   0  0  0  0  0  0  0  0  0  0  0  0
    7.5180   10.8770   25.3190 C   0  0  0  0  0  0  0  0  0  0  0  0
    8.2110   12.1520   24.8610 C   0  0  0  0  0  0  0  0  0  0  0  0
    7.8670   13.4970   25.4680 C   0  0  0  0  0  0  0  0  0  0  0  0
    9.1050   11.6990   23.8730 C   0  0  0  0  0  0  0  0  0  0  0  0
   10.0340   12.4970   23.1170 N   0  0  0  0  0  0  0  0  0  0  0  0
   10.8630   13.4170   23.8700 C   0  0  0  0  0  0  0  0  0  0  0  0
   10.5080   14.0100   24.8710 O   0  0  0  0  0  0  0  0  0  0  0  0
   12.2460   13.5750   23.3010 C   0  0  2  0  0  0  0  0  0  0  0  0
   13.3270   13.4110   24.3550 C   0  0  0  0  0  0  0  0  0  0  0  0
   12.3940   15.0010   22.8670 C   0  0  0  0  0  0  0  0  0  0  0  0
   11.9230   15.4160   21.5140 C   0  0  0  0  0  0  0  0  0  0  0  0
   12.8700   14.8950   20.4460 C   0  0  0  0  0  0  0  0  0  0  0  0
   10.5000   14.9480   21.1910 C   0  0  0  0  0  0  0  0  0  0  0  0
   11.9500   16.9250   21.5350 C   0  0  0  0  0  0  0  0  0  0  0  0
  1  2  1  0
  2  3  1  0
  3  4  1  0
  4  5  2  0
  5  6  1  0
  6  7  1  0
  6  8  2  0
  8  9  1  0
  9 10  1  0
 10 11  2  0
 10 12  1  0
 12 13  1  1
 12 14  1  0
 14 15  1  0
 15 16  1  0
 15 17  1  0
 15 18  1  0
  8  3  1  0
A    1
 C1 
A    2
 C2 
A    3
 N1 
A    4
 N2 
A    5
 C3 
A    6
 C4 
A    7
 C5 
A    8
 C6 
A    9
 N3 
A   10
 C7 
A   11
 O1 
A   12
 C8 
A   13
 C9 
A   14
 C10
A   15
 C11
A   16
 C12
A   17
 C13
A   18
 C14
M  END
>  <similarity>  (175) 
1.0

>  <smiles>  (175) 
CCn1ncc(C)c1NC(=O)C(C)CC(C)(C)C

>  <cmpd_id>  (175) 
ENAMINE:Z2645578091

>  <used_subnode>  (175) 
c1cn[nH]c1

>  <used_synthon>  (175) 
CC(CC(C)(C)C)C(=O)N[Xe]

>  <ref_subnode>  (175) 
c1cn[nH]c1

>  <ref_synthon>  (175) 
N#CCC(=O)N[Xe]

>  <fragmentA>  (175) 
x0556_0A

>  <fragmentB>  (175) 
x0310_0A

>  <HA>  (175) 
18

>  <HBD>  (175) 
1

>  <HBA>  (175) 
3

>  <MW>  (175) 
251.19976241999998

>  <TPSA>  (175) 
46.92

>  <LogP>  (175) 
3.222220000000002

>  <RBs>  (175) 
4

>  <G_bound>  (175) 
-12.267157758040568

>  <G_unbound>  (175) 
0.1724762607254715

>  <deltaG>  (175) 
-12.43963401876604

>  <comRMSD>  (175) 
0.754887156373853

>  <UFFGibbs>  (175) 
130.60379660533584

>  <strain_per_HA>  (175) 
7.2557664780742135

>  <substructure_overlap_check>  (175) 
True

>  <energy_ratio_check>  (175) 
True

>  <const_energy/unconst_energy>  (175) 
0.9317612147338143

>  <sucos>  (175) 
0.6046684281779036

>  <interactions>  (175) 
HBDonor_SER-125,Hydrophobic_TYR-90,Hydrophobic_HIS-21,Hydrophobic_PRO-107,Hydrophobic_CYS-110,Hydrophobic_VAL-124,Hydrophobic_TYR-89,Hydrophobic_ASP-109

>  <total_num_ints>  (175) 
8

>  <total_num_ints_nonhyd>  (175) 
1

>  <num_uniq_frag_ints>  (175) 
1

>  <num_repl_uniq_ints>  (175) 
1

>  <num_uniq_ints_lost>  (175) 
0

>  <num_new_uniq_ints>  (175) 
7

>  <int_check>  (175) 
True

>  <ref_url>  (175) 
https://pubs.acs.org/doi/10.1021/acs.jcim.3c00276?fig=tgr1&ref=pdf

>  <submitter_name>  (175) 
Steph Wills

>  <submitter_institution>  (175) 
University of Oxford

>  <submitter_email>  (175) 
stephanie.wills@balliol.ox.ac.uk

>  <generation_date>  (175) 
2023-11-23

>  <method>  (175) 
FragNetv2

>  <original SMILES>  (175) 
CCn1ncc(C)c1NC(=O)C(C)CC(C)(C)C

>  <original_name>  (175) 
x0556_0A-x0310_0A_54279_B1X

>  <ref_mols>  (175) 
x0556_0A,x0310_0A

>  <ref_pdb>  (175) 
x0310_0A

>  <rationale>  (175) 
FragNet: 1 round bioisosteric merging incl c1cn[nH]c1 and CC(CC(C)(C)C)C(=O)N[Xe] replacing N#CCC(=O)N[Xe]

$$$$
x0556_0A-x0310_0A_353_PXX
     RDKit          3D

 15 15  0  0  0  0  0  0  0  0999 V2000
    6.5690   10.9150   26.2260 C   0  0  0  0  0  0  0  0  0  0  0  0
    7.5960   10.9630   25.2140 N   0  0  0  0  0  0  0  0  0  0  0  0
    8.1650   12.0910   24.7150 C   0  0  0  0  0  0  0  0  0  0  0  0
    9.1170   11.5780   23.7240 C   0  0  0  0  0  0  0  0  0  0  0  0
    9.9270   12.4050   22.9630 N   0  0  0  0  0  0  0  0  0  0  0  0
   10.8670   13.2940   23.6120 C   0  0  0  0  0  0  0  0  0  0  0  0
   10.7340   13.7580   24.7340 O   0  0  0  0  0  0  0  0  0  0  0  0
   12.0910   13.6560   22.7790 C   0  0  0  0  0  0  0  0  0  0  0  0
   12.1390   15.0960   22.6250 C   0  0  0  0  0  0  0  0  0  0  0  0
   12.1150   16.2390   22.5120 N   0  0  0  0  0  0  0  0  0  0  0  0
    8.9660   10.1830   23.7770 C   0  0  0  0  0  0  0  0  0  0  0  0
    9.6810    9.3010   22.9580 C   0  0  0  0  0  0  0  0  0  0  0  0
   10.2960   10.0680   22.0760 F   0  0  0  0  0  0  0  0  0  0  0  0
   10.7490    8.7100   23.5110 F   0  0  0  0  0  0  0  0  0  0  0  0
    8.0530    9.8070   24.6870 N   0  0  0  0  0  0  0  0  0  0  0  0
  1  2  1  0
  2  3  1  0
  3  4  2  0
  4  5  1  0
  5  6  1  0
  6  7  2  0
  6  8  1  0
  8  9  1  0
  9 10  3  0
  4 11  1  0
 11 12  1  0
 12 13  1  0
 12 14  1  0
 11 15  2  0
 15  2  1  0
A    1
 C1 
A    2
 N1 
A    3
 C2 
A    4
 C3 
A    5
 N2 
A    6
 C4 
A    7
 O1 
A    8
 C5 
A    9
 C6 
A   10
 N3 
A   11
 C7 
A   12
 C8 
A   13
 F1 
A   14
 F2 
A   15
 N4 
M  END
>  <similarity>  (176) 
NA

>  <smiles>  (176) 
Cn1cc(NC(=O)CC#N)c(C(F)F)n1

>  <cmpd_id>  (176) 
ENAMINE:Z3585809468

>  <used_subnode>  (176) 
NA

>  <used_synthon>  (176) 
NA

>  <ref_subnode>  (176) 
c1cn[nH]c1

>  <ref_synthon>  (176) 
N#CCC(=O)N[Xe]

>  <fragmentA>  (176) 
x0556_0A

>  <fragmentB>  (176) 
x0310_0A

>  <HA>  (176) 
15

>  <HBD>  (176) 
1

>  <HBA>  (176) 
4

>  <MW>  (176) 
214.066617316

>  <TPSA>  (176) 
70.71000000000001

>  <LogP>  (176) 
1.20988

>  <RBs>  (176) 
3

>  <G_bound>  (176) 
-2.687359337695929

>  <G_unbound>  (176) 
0.7489700437153982

>  <deltaG>  (176) 
-3.436329381411327

>  <comRMSD>  (176) 
1.5420890726660745

>  <substructure_overlap_check>  (176) 
True

>  <energy_ratio_check>  (176) 
True

>  <const_energy/unconst_energy>  (176) 
2.0107096065267847

>  <sucos>  (176) 
0.6060854011587654

>  <interactions>  (176) 
Hydrophobic_HIS-21,Hydrophobic_PRO-107,HBDonor_SER-125

>  <total_num_ints>  (176) 
3

>  <total_num_ints_nonhyd>  (176) 
1

>  <num_uniq_frag_ints>  (176) 
1

>  <num_repl_uniq_ints>  (176) 
1

>  <num_uniq_ints_lost>  (176) 
0

>  <num_new_uniq_ints>  (176) 
2

>  <int_check>  (176) 
True

>  <ref_url>  (176) 
https://pubs.acs.org/doi/10.1021/acs.jcim.3c00276?fig=tgr1&ref=pdf

>  <submitter_name>  (176) 
Steph Wills

>  <submitter_institution>  (176) 
University of Oxford

>  <submitter_email>  (176) 
stephanie.wills@balliol.ox.ac.uk

>  <generation_date>  (176) 
2023-11-23

>  <method>  (176) 
FragNetv2

>  <original SMILES>  (176) 
Cn1cc(NC(=O)CC#N)c(C(F)F)n1

>  <original_name>  (176) 
x0556_0A-x0310_0A_353_PXX

>  <ref_mols>  (176) 
x0556_0A,x0310_0A

>  <ref_pdb>  (176) 
x0310_0A

>  <rationale>  (176) 
FragNet: perfect merge incl c1cn[nH]c1,N#CCC(=O)N[Xe]

$$$$
x0556_0A-x0310_0A_33623_B1X
     RDKit          3D

 15 15  0  0  0  0  0  0  0  0999 V2000
    8.5090   14.6440   25.9500 C   0  0  0  0  0  0  0  0  0  0  0  0
    7.4290   13.9150   24.6960 S   0  0  0  0  0  0  0  0  0  0  0  0
    7.9560   12.1400   24.5390 C   0  0  0  0  0  0  0  0  0  0  0  0
    7.3360   11.0320   25.1960 C   0  0  0  0  0  0  0  0  0  0  0  0
    8.0190    9.7980   24.8040 N   0  0  0  0  0  0  0  0  0  0  0  0
    9.0210   10.1950   23.9310 N   0  0  0  0  0  0  0  0  0  0  0  0
    9.8580    9.1610   23.3670 C   0  0  0  0  0  0  0  0  0  0  0  0
    9.1030   11.6180   23.6880 C   0  0  0  0  0  0  0  0  0  0  0  0
    9.9980   12.2690   22.8840 N   0  0  0  0  0  0  0  0  0  0  0  0
   10.9710   13.0000   23.3830 C   0  0  0  0  0  0  0  0  0  0  0  0
   11.1660   13.2030   24.5740 O   0  0  0  0  0  0  0  0  0  0  0  0
   11.6150   13.4470   22.5010 C   0  0  0  0  0  0  0  0  0  0  0  0
   12.1790   14.7800   22.6690 C   0  0  0  0  0  0  0  0  0  0  0  0
   11.9410   15.4340   23.9930 C   0  0  0  0  0  0  0  0  0  0  0  0
   13.0590   15.6010   21.4840 Cl  0  0  0  0  0  0  0  0  0  0  0  0
  1  2  1  0
  2  3  1  0
  3  4  1  0
  4  5  2  0
  5  6  1  0
  6  7  1  0
  6  8  1  0
  8  9  1  0
  9 10  1  0
 10 11  2  0
 10 12  1  0
 12 13  2  3
 13 14  1  0
 13 15  1  0
  8  3  2  0
A    1
 C1 
A    2
 S1 
A    3
 C2 
A    4
 C3 
A    5
 N1 
A    6
 N2 
A    7
 C4 
A    8
 C5 
A    9
 N3 
A   10
 C6 
A   11
 O1 
A   12
 C7 
A   13
 C8 
A   14
 C9 
A   15
CL1 
M  END
>  <similarity>  (177) 
1.0

>  <smiles>  (177) 
CSc1cnn(C)c1NC(=O)C=C(C)Cl

>  <cmpd_id>  (177) 
ENAMINE:Z4220841119

>  <used_subnode>  (177) 
c1cn[nH]c1

>  <used_synthon>  (177) 
CC(Cl)=CC(=O)N[Xe]

>  <ref_subnode>  (177) 
c1cn[nH]c1

>  <ref_synthon>  (177) 
N#CCC(=O)N[Xe]

>  <fragmentA>  (177) 
x0556_0A

>  <fragmentB>  (177) 
x0310_0A

>  <HA>  (177) 
15

>  <HBD>  (177) 
1

>  <HBA>  (177) 
4

>  <MW>  (177) 
245.038960684

>  <TPSA>  (177) 
46.92

>  <LogP>  (177) 
2.2230999999999996

>  <RBs>  (177) 
3

>  <G_bound>  (177) 
-7.852559603184203

>  <G_unbound>  (177) 
0.6736766137397987

>  <deltaG>  (177) 
-8.526236216924001

>  <comRMSD>  (177) 
0.4962699347751537

>  <UFFGibbs>  (177) 
188.63650860387094

>  <strain_per_HA>  (177) 
12.575767240258063

>  <substructure_overlap_check>  (177) 
True

>  <energy_ratio_check>  (177) 
True

>  <const_energy/unconst_energy>  (177) 
1.0055140716902982

>  <sucos>  (177) 
0.6079412697626405

>  <interactions>  (177) 
HBDonor_SER-125,Hydrophobic_HIS-21,Hydrophobic_PRO-107,Hydrophobic_TYR-89

>  <total_num_ints>  (177) 
4

>  <total_num_ints_nonhyd>  (177) 
1

>  <num_uniq_frag_ints>  (177) 
1

>  <num_repl_uniq_ints>  (177) 
1

>  <num_uniq_ints_lost>  (177) 
0

>  <num_new_uniq_ints>  (177) 
3

>  <int_check>  (177) 
True

>  <ref_url>  (177) 
https://pubs.acs.org/doi/10.1021/acs.jcim.3c00276?fig=tgr1&ref=pdf

>  <submitter_name>  (177) 
Steph Wills

>  <submitter_institution>  (177) 
University of Oxford

>  <submitter_email>  (177) 
stephanie.wills@balliol.ox.ac.uk

>  <generation_date>  (177) 
2023-11-23

>  <method>  (177) 
FragNetv2

>  <original SMILES>  (177) 
CSc1cnn(C)c1NC(=O)C=C(C)Cl

>  <original_name>  (177) 
x0556_0A-x0310_0A_33623_B1X

>  <ref_mols>  (177) 
x0556_0A,x0310_0A

>  <ref_pdb>  (177) 
x0310_0A

>  <rationale>  (177) 
FragNet: 1 round bioisosteric merging incl c1cn[nH]c1 and CC(Cl)=CC(=O)N[Xe] replacing N#CCC(=O)N[Xe]

$$$$
x0556_0A-x0310_0A_54770_B1X_rgrp-0
     RDKit          3D

 16 16  0  0  0  0  0  0  0  0999 V2000
    5.8860   10.4970   27.0130 C   0  0  0  0  0  0  0  0  0  0  0  0
    6.4750   11.6510   26.2360 C   0  0  0  0  0  0  0  0  0  0  0  0
    7.5530   11.2600   25.2170 C   0  0  0  0  0  0  0  0  0  0  0  0
    8.3070   12.2910   24.4770 C   0  0  0  0  0  0  0  0  0  0  0  0
    9.2310   11.6160   23.6000 C   0  0  0  0  0  0  0  0  0  0  0  0
   10.0550   12.3480   22.7870 N   0  0  0  0  0  0  0  0  0  0  0  0
   10.8530   13.4220   23.2920 C   0  0  0  0  0  0  0  0  0  0  0  0
   10.8340   13.8770   24.4380 O   0  0  0  0  0  0  0  0  0  0  0  0
   11.6730   13.9190   22.2860 C   0  0  0  0  0  0  0  0  0  0  0  0
   12.5120   14.9340   22.6870 C   0  0  0  0  0  0  0  0  0  0  0  0
   13.3170   14.4650   23.6760 F   0  0  0  0  0  0  0  0  0  0  0  0
   11.8700   15.9680   23.2090 F   0  0  0  0  0  0  0  0  0  0  0  0
   13.2620   15.3990   21.6790 F   0  0  0  0  0  0  0  0  0  0  0  0
    9.0180   10.3080   23.8250 N   0  0  0  0  0  0  0  0  0  0  0  0
    9.7380    9.3950   23.1310 C   0  0  0  0  0  0  0  0  0  0  0  0
    8.0190   10.0330   24.7950 N   0  0  0  0  0  0  0  0  0  0  0  0
  1  2  1  0
  2  3  1  0
  3  4  1  0
  4  5  2  0
  5  6  1  0
  6  7  1  0
  7  8  2  0
  7  9  1  0
  9 10  1  0
 10 11  1  0
 10 12  1  0
 10 13  1  0
  5 14  1  0
 14 15  1  0
 14 16  1  0
 16  3  2  0
A    1
 C1 
A    2
 C2 
A    3
 C3 
A    4
 C4 
A    5
 C5 
A    6
 N1 
A    7
 C6 
A    8
 O1 
A    9
 C7 
A   10
 C8 
A   11
 F1 
A   12
 F2 
A   13
 F3 
A   14
 N2 
A   15
 C9 
A   16
 N3 
M  END
>  <similarity>  (178) 
1.0

>  <smiles>  (178) 
CCc1cc(NC(=O)CC(F)(F)F)n(C)n1

>  <cmpd_id>  (178) 
ENAMINE:Z1217419270

>  <used_subnode>  (178) 
c1cn[nH]c1

>  <used_synthon>  (178) 
O=C(CC(F)(F)F)N[Xe]

>  <ref_subnode>  (178) 
c1cn[nH]c1

>  <ref_synthon>  (178) 
N#CCC(=O)N[Xe]

>  <fragmentA>  (178) 
x0556_0A

>  <fragmentB>  (178) 
x0310_0A

>  <HA>  (178) 
16

>  <HBD>  (178) 
1

>  <HBA>  (178) 
3

>  <MW>  (178) 
235.093246664

>  <TPSA>  (178) 
46.92

>  <LogP>  (178) 
1.8734

>  <RBs>  (178) 
3

>  <G_bound>  (178) 
-6.998367003711832

>  <G_unbound>  (178) 
0.54048805032702

>  <deltaG>  (178) 
-7.5388550540388515

>  <comRMSD>  (178) 
0.21630114850806956

>  <substructure_overlap_check>  (178) 
True

>  <energy_ratio_check>  (178) 
True

>  <const_energy/unconst_energy>  (178) 
2.7031641068268004

>  <sucos>  (178) 
0.6099374963126927

>  <interactions>  (178) 
Hydrophobic_PRO-107,Hydrophobic_HIS-21,HBDonor_SER-125

>  <total_num_ints>  (178) 
3

>  <total_num_ints_nonhyd>  (178) 
1

>  <num_uniq_frag_ints>  (178) 
1

>  <num_repl_uniq_ints>  (178) 
1

>  <num_uniq_ints_lost>  (178) 
0

>  <num_new_uniq_ints>  (178) 
2

>  <int_check>  (178) 
True

>  <ref_url>  (178) 
https://pubs.acs.org/doi/10.1021/acs.jcim.3c00276?fig=tgr1&ref=pdf

>  <submitter_name>  (178) 
Steph Wills

>  <submitter_institution>  (178) 
University of Oxford

>  <submitter_email>  (178) 
stephanie.wills@balliol.ox.ac.uk

>  <generation_date>  (178) 
2023-11-23

>  <method>  (178) 
FragNetv2

>  <original SMILES>  (178) 
CCc1cc(NC(=O)CC(F)(F)F)n(C)n1

>  <original_name>  (178) 
x0556_0A-x0310_0A_54770_B1X_rgrp-0

>  <ref_mols>  (178) 
x0556_0A,x0310_0A

>  <ref_pdb>  (178) 
x0310_0A

>  <rationale>  (178) 
FragNet: 1 round bioisosteric merging incl c1cn[nH]c1 and O=C(CC(F)(F)F)N[Xe] replacing N#CCC(=O)N[Xe]

$$$$
x0556_0A-x0310_0A_356_PXX
     RDKit          3D

 16 16  0  0  0  0  0  0  0  0999 V2000
    9.7330    9.4310   23.1440 C   0  0  0  0  0  0  0  0  0  0  0  0
    8.9510   10.3960   23.8900 N   0  0  0  0  0  0  0  0  0  0  0  0
    7.9640   10.0290   24.7690 N   0  0  0  0  0  0  0  0  0  0  0  0
    7.4560   11.1970   25.2540 C   0  0  0  0  0  0  0  0  0  0  0  0
    6.3120   11.3420   26.2830 C   0  0  0  0  0  0  0  0  0  0  0  0
    5.3170   12.1630   25.8580 F   0  0  0  0  0  0  0  0  0  0  0  0
    5.7240   10.1640   26.6100 F   0  0  0  0  0  0  0  0  0  0  0  0
    6.7130   11.8930   27.4620 F   0  0  0  0  0  0  0  0  0  0  0  0
    8.2080   12.3820   24.6110 C   0  0  0  0  0  0  0  0  0  0  0  0
    9.1390   11.8320   23.7680 C   0  0  0  0  0  0  0  0  0  0  0  0
   10.0930   12.4140   22.9480 N   0  0  0  0  0  0  0  0  0  0  0  0
   11.0160   13.2680   23.5220 C   0  0  0  0  0  0  0  0  0  0  0  0
   10.9190   13.7150   24.6620 O   0  0  0  0  0  0  0  0  0  0  0  0
   12.0820   13.6330   22.7480 C   0  0  0  0  0  0  0  0  0  0  0  0
   12.1470   15.1340   22.5610 C   0  0  0  0  0  0  0  0  0  0  0  0
   12.1030   16.2750   22.4490 N   0  0  0  0  0  0  0  0  0  0  0  0
  1  2  1  0
  2  3  1  0
  3  4  2  0
  4  5  1  0
  5  6  1  0
  5  7  1  0
  5  8  1  0
  4  9  1  0
  9 10  2  0
 10 11  1  0
 11 12  1  0
 12 13  2  0
 12 14  1  0
 14 15  1  0
 15 16  3  0
 10  2  1  0
A    1
 C1 
A    2
 N1 
A    3
 N2 
A    4
 C2 
A    5
 C3 
A    6
 F1 
A    7
 F2 
A    8
 F3 
A    9
 C4 
A   10
 C5 
A   11
 N3 
A   12
 C6 
A   13
 O1 
A   14
 C7 
A   15
 C8 
A   16
 N4 
M  END
>  <similarity>  (179) 
NA

>  <smiles>  (179) 
Cn1nc(C(F)(F)F)cc1NC(=O)CC#N

>  <cmpd_id>  (179) 
ENAMINE:Z4048800382

>  <used_subnode>  (179) 
NA

>  <used_synthon>  (179) 
NA

>  <ref_subnode>  (179) 
c1cn[nH]c1

>  <ref_synthon>  (179) 
N#CCC(=O)N[Xe]

>  <fragmentA>  (179) 
x0556_0A

>  <fragmentB>  (179) 
x0310_0A

>  <HA>  (179) 
16

>  <HBD>  (179) 
1

>  <HBA>  (179) 
4

>  <MW>  (179) 
232.057195504

>  <TPSA>  (179) 
70.71000000000001

>  <LogP>  (179) 
1.2910799999999998

>  <RBs>  (179) 
2

>  <G_bound>  (179) 
-6.773827982958858

>  <G_unbound>  (179) 
0.5160142229901447

>  <deltaG>  (179) 
-7.289842205949003

>  <comRMSD>  (179) 
0.4287457052200687

>  <substructure_overlap_check>  (179) 
True

>  <energy_ratio_check>  (179) 
True

>  <const_energy/unconst_energy>  (179) 
2.113501979708768

>  <sucos>  (179) 
0.6131242737826793

>  <interactions>  (179) 
Hydrophobic_HIS-21,Hydrophobic_PRO-107,HBDonor_SER-125

>  <total_num_ints>  (179) 
3

>  <total_num_ints_nonhyd>  (179) 
1

>  <num_uniq_frag_ints>  (179) 
1

>  <num_repl_uniq_ints>  (179) 
1

>  <num_uniq_ints_lost>  (179) 
0

>  <num_new_uniq_ints>  (179) 
2

>  <int_check>  (179) 
True

>  <ref_url>  (179) 
https://pubs.acs.org/doi/10.1021/acs.jcim.3c00276?fig=tgr1&ref=pdf

>  <submitter_name>  (179) 
Steph Wills

>  <submitter_institution>  (179) 
University of Oxford

>  <submitter_email>  (179) 
stephanie.wills@balliol.ox.ac.uk

>  <generation_date>  (179) 
2023-11-23

>  <method>  (179) 
FragNetv2

>  <original SMILES>  (179) 
Cn1nc(C(F)(F)F)cc1NC(=O)CC#N

>  <original_name>  (179) 
x0556_0A-x0310_0A_356_PXX

>  <ref_mols>  (179) 
x0556_0A,x0310_0A

>  <ref_pdb>  (179) 
x0310_0A

>  <rationale>  (179) 
FragNet: perfect merge incl c1cn[nH]c1,N#CCC(=O)N[Xe]

$$$$
x0556_0A-x0310_0A_50756_B1X
     RDKit          3D

 19 19  0  0  0  0  0  0  0  0999 V2000
    5.8260   13.4840   25.8570 C   0  0  0  0  0  0  0  0  0  0  0  0
    6.3510   12.5480   26.7940 O   0  0  0  0  0  0  0  0  0  0  0  0
    6.2930   11.2010   26.3220 C   0  0  0  0  0  0  0  0  0  0  0  0
    5.4680   10.3780   26.6910 O   0  0  0  0  0  0  0  0  0  0  0  0
    7.4070   10.9360   25.2890 C   0  0  0  0  0  0  0  0  0  0  0  0
    7.9910   12.1360   24.6500 C   0  0  0  0  0  0  0  0  0  0  0  0
    9.0110   11.5530   23.7240 C   0  0  0  0  0  0  0  0  0  0  0  0
    9.8060   12.3280   22.9180 N   0  0  0  0  0  0  0  0  0  0  0  0
   10.5990   13.3020   23.4560 C   0  0  0  0  0  0  0  0  0  0  0  0
   10.4100   13.9240   24.4980 O   0  0  0  0  0  0  0  0  0  0  0  0
   11.6940   13.4710   22.6180 C   0  0  2  0  0  0  0  0  0  0  0  0
   12.4870   12.1830   22.8070 C   0  0  0  0  0  0  0  0  0  0  0  0
   12.5500   14.6410   23.0660 C   0  0  0  0  0  0  0  0  0  0  0  0
   11.8320   15.6570   23.5300 F   0  0  0  0  0  0  0  0  0  0  0  0
   13.3760   14.2530   24.0640 F   0  0  0  0  0  0  0  0  0  0  0  0
   13.2710   15.1670   22.0590 F   0  0  0  0  0  0  0  0  0  0  0  0
    8.9310   10.2380   23.8930 N   0  0  0  0  0  0  0  0  0  0  0  0
    9.7950    9.4680   23.1190 C   0  0  0  0  0  0  0  0  0  0  0  0
    7.9940    9.7960   24.8170 N   0  0  0  0  0  0  0  0  0  0  0  0
  1  2  1  0
  2  3  1  0
  3  4  2  0
  3  5  1  0
  5  6  1  0
  6  7  2  0
  7  8  1  0
  8  9  1  0
  9 10  2  0
  9 11  1  0
 11 12  1  1
 11 13  1  0
 13 14  1  0
 13 15  1  0
 13 16  1  0
  7 17  1  0
 17 18  1  0
 17 19  1  0
 19  5  2  0
A    1
 C1 
A    2
 O1 
A    3
 C2 
A    4
 O2 
A    5
 C3 
A    6
 C4 
A    7
 C5 
A    8
 N1 
A    9
 C6 
A   10
 O3 
A   11
 C7 
A   12
 C8 
A   13
 C9 
A   14
 F1 
A   15
 F2 
A   16
 F3 
A   17
 N2 
A   18
 C10
A   19
 N3 
M  END
>  <similarity>  (180) 
1.0

>  <smiles>  (180) 
COC(=O)c1cc(NC(=O)C(C)C(F)(F)F)n(C)n1

>  <cmpd_id>  (180) 
ENAMINE:Z3087212923

>  <used_subnode>  (180) 
c1cn[nH]c1

>  <used_synthon>  (180) 
CC(C(=O)N[Xe])C(F)(F)F

>  <ref_subnode>  (180) 
c1cn[nH]c1

>  <ref_synthon>  (180) 
N#CCC(=O)N[Xe]

>  <fragmentA>  (180) 
x0556_0A

>  <fragmentB>  (180) 
x0310_0A

>  <HA>  (180) 
19

>  <HBD>  (180) 
1

>  <HBA>  (180) 
5

>  <MW>  (180) 
279.083075904

>  <TPSA>  (180) 
73.22

>  <LogP>  (180) 
1.3436000000000001

>  <RBs>  (180) 
3

>  <G_bound>  (180) 
-6.371794810279162

>  <G_unbound>  (180) 
0.8978536076664807

>  <deltaG>  (180) 
-7.269648417945643

>  <comRMSD>  (180) 
0.46097824679494515

>  <UFFGibbs>  (180) 
157.48866658685625

>  <strain_per_HA>  (180) 
8.288877188781909

>  <substructure_overlap_check>  (180) 
True

>  <energy_ratio_check>  (180) 
True

>  <const_energy/unconst_energy>  (180) 
1.050057856534962

>  <sucos>  (180) 
0.6239705989230163

>  <interactions>  (180) 
HBDonor_SER-125,Hydrophobic_HIS-21,Hydrophobic_PRO-107,Hydrophobic_CYS-110

>  <total_num_ints>  (180) 
4

>  <total_num_ints_nonhyd>  (180) 
1

>  <num_uniq_frag_ints>  (180) 
1

>  <num_repl_uniq_ints>  (180) 
1

>  <num_uniq_ints_lost>  (180) 
0

>  <num_new_uniq_ints>  (180) 
3

>  <int_check>  (180) 
True

>  <ref_url>  (180) 
https://pubs.acs.org/doi/10.1021/acs.jcim.3c00276?fig=tgr1&ref=pdf

>  <submitter_name>  (180) 
Steph Wills

>  <submitter_institution>  (180) 
University of Oxford

>  <submitter_email>  (180) 
stephanie.wills@balliol.ox.ac.uk

>  <generation_date>  (180) 
2023-11-23

>  <method>  (180) 
FragNetv2

>  <original SMILES>  (180) 
COC(=O)c1cc(NC(=O)C(C)C(F)(F)F)n(C)n1

>  <original_name>  (180) 
x0556_0A-x0310_0A_50756_B1X

>  <ref_mols>  (180) 
x0556_0A,x0310_0A

>  <ref_pdb>  (180) 
x0310_0A

>  <rationale>  (180) 
FragNet: 1 round bioisosteric merging incl c1cn[nH]c1 and CC(C(=O)N[Xe])C(F)(F)F replacing N#CCC(=O)N[Xe]

$$$$
x0556_0A-x0310_0A_26511_B1X_rgrp-0
     RDKit          3D

 21 21  0  0  0  0  0  0  0  0999 V2000
    4.2430    8.6090   27.6350 C   0  0  0  0  0  0  0  0  0  0  0  0
    5.2020    9.8030   27.6830 C   0  0  0  0  0  0  0  0  0  0  0  0
    5.5740   10.2110   26.3610 O   0  0  0  0  0  0  0  0  0  0  0  0
    6.3870   11.3040   26.2760 C   0  0  0  0  0  0  0  0  0  0  0  0
    6.2540   12.3040   26.9780 O   0  0  0  0  0  0  0  0  0  0  0  0
    7.4980   11.1870   25.2140 C   0  0  0  0  0  0  0  0  0  0  0  0
    8.2070   12.2980   24.4880 C   0  0  0  0  0  0  0  0  0  0  0  0
    9.1870   11.7240   23.5590 C   0  0  0  0  0  0  0  0  0  0  0  0
    9.9700   12.5400   22.7760 N   0  0  0  0  0  0  0  0  0  0  0  0
   10.9340   13.3100   23.3440 C   0  0  0  0  0  0  0  0  0  0  0  0
   10.7350   13.9190   24.3910 O   0  0  0  0  0  0  0  0  0  0  0  0
   12.2710   13.3320   22.6070 C   0  0  0  0  0  0  0  0  0  0  0  0
   12.3200   13.7820   21.2380 C   0  0  0  0  0  0  0  0  0  0  0  0
   12.8810   11.9710   22.6800 C   0  0  0  0  0  0  0  0  0  0  0  0
   13.1130   14.3410   23.3230 C   0  0  0  0  0  0  0  0  0  0  0  0
   12.3180   15.4200   23.5070 C   0  0  0  0  0  0  0  0  0  0  0  0
   13.5600   13.8930   24.5280 F   0  0  0  0  0  0  0  0  0  0  0  0
   14.1540   14.6820   22.5290 F   0  0  0  0  0  0  0  0  0  0  0  0
    9.0330   10.3780   23.7560 N   0  0  0  0  0  0  0  0  0  0  0  0
    9.7740    9.3470   23.0660 C   0  0  0  0  0  0  0  0  0  0  0  0
    8.0630   10.0380   24.7120 N   0  0  0  0  0  0  0  0  0  0  0  0
  1  2  1  0
  2  3  1  0
  3  4  1  0
  4  5  2  0
  4  6  1  0
  6  7  1  0
  7  8  2  0
  8  9  1  0
  9 10  1  0
 10 11  2  0
 10 12  1  0
 12 13  1  0
 12 14  1  0
 12 15  1  0
 15 16  1  0
 15 17  1  0
 15 18  1  0
  8 19  1  0
 19 20  1  0
 19 21  1  0
 21  6  2  0
A    1
 C1 
A    2
 C2 
A    3
 O1 
A    4
 C3 
A    5
 O2 
A    6
 C4 
A    7
 C5 
A    8
 C6 
A    9
 N1 
A   10
 C7 
A   11
 O3 
A   12
 C8 
A   13
 C9 
A   14
 C10
A   15
 C11
A   16
 C12
A   17
 F1 
A   18
 F2 
A   19
 N2 
A   20
 C13
A   21
 N3 
M  END
>  <similarity>  (181) 
1.0

>  <smiles>  (181) 
CCOC(=O)c1cc(NC(=O)C(C)(C)C(C)(F)F)n(C)n1

>  <cmpd_id>  (181) 
ENAMINE:Z3609361580

>  <used_subnode>  (181) 
c1cn[nH]c1

>  <used_synthon>  (181) 
CC(F)(F)C(C)(C)C(=O)N[Xe]

>  <ref_subnode>  (181) 
c1cn[nH]c1

>  <ref_synthon>  (181) 
N#CCC(=O)N[Xe]

>  <fragmentA>  (181) 
x0556_0A

>  <fragmentB>  (181) 
x0310_0A

>  <HA>  (181) 
21

>  <HBD>  (181) 
1

>  <HBA>  (181) 
5

>  <MW>  (181) 
303.1394479080001

>  <TPSA>  (181) 
73.22

>  <LogP>  (181) 
2.2167000000000003

>  <RBs>  (181) 
5

>  <G_bound>  (181) 
-8.767102180307948

>  <G_unbound>  (181) 
0.5083617586254882

>  <deltaG>  (181) 
-9.275463938933436

>  <comRMSD>  (181) 
0.33719106030775936

>  <substructure_overlap_check>  (181) 
True

>  <energy_ratio_check>  (181) 
True

>  <const_energy/unconst_energy>  (181) 
5.133055767401901

>  <sucos>  (181) 
0.6244425084962509

>  <interactions>  (181) 
Hydrophobic_CYS-110,Hydrophobic_PRO-107,Hydrophobic_HIS-21,Hydrophobic_TYR-89,HBDonor_SER-125,Hydrophobic_TYR-90

>  <total_num_ints>  (181) 
6

>  <total_num_ints_nonhyd>  (181) 
1

>  <num_uniq_frag_ints>  (181) 
1

>  <num_repl_uniq_ints>  (181) 
1

>  <num_uniq_ints_lost>  (181) 
0

>  <num_new_uniq_ints>  (181) 
5

>  <int_check>  (181) 
True

>  <ref_url>  (181) 
https://pubs.acs.org/doi/10.1021/acs.jcim.3c00276?fig=tgr1&ref=pdf

>  <submitter_name>  (181) 
Steph Wills

>  <submitter_institution>  (181) 
University of Oxford

>  <submitter_email>  (181) 
stephanie.wills@balliol.ox.ac.uk

>  <generation_date>  (181) 
2023-11-23

>  <method>  (181) 
FragNetv2

>  <original SMILES>  (181) 
CCOC(=O)c1cc(NC(=O)C(C)(C)C(C)(F)F)n(C)n1

>  <original_name>  (181) 
x0556_0A-x0310_0A_26511_B1X_rgrp-0

>  <ref_mols>  (181) 
x0556_0A,x0310_0A

>  <ref_pdb>  (181) 
x0310_0A

>  <rationale>  (181) 
FragNet: 1 round bioisosteric merging incl c1cn[nH]c1 and CC(F)(F)C(C)(C)C(=O)N[Xe] replacing N#CCC(=O)N[Xe]

$$$$
x0556_0A-x0310_0A_39743_B1X_rgrp-0
     RDKit          3D

 15 15  0  0  0  0  0  0  0  0999 V2000
   12.0000   15.4440   23.8900 C   0  0  0  0  0  0  0  0  0  0  0  0
   12.4220   14.8280   22.6300 C   0  0  0  0  0  0  0  0  0  0  0  0
   13.2390   15.3740   21.6770 C   0  0  0  0  0  0  0  0  0  0  0  0
   11.8660   13.4680   22.4270 C   0  0  0  0  0  0  0  0  0  0  0  0
   11.0150   12.9750   23.3860 C   0  0  0  0  0  0  0  0  0  0  0  0
   11.2860   13.1680   24.5660 O   0  0  0  0  0  0  0  0  0  0  0  0
    9.8840   12.3130   22.9020 N   0  0  0  0  0  0  0  0  0  0  0  0
    9.0630   11.5410   23.6920 C   0  0  0  0  0  0  0  0  0  0  0  0
    7.9980   12.0170   24.6380 C   0  0  0  0  0  0  0  0  0  0  0  0
    7.7130   13.4980   24.8120 C   0  0  0  0  0  0  0  0  0  0  0  0
    7.4500   10.8590   25.1940 C   0  0  0  0  0  0  0  0  0  0  0  0
    6.3240   10.6530   26.2110 C   0  0  0  0  0  0  0  0  0  0  0  0
    8.1320    9.6990   24.6350 N   0  0  0  0  0  0  0  0  0  0  0  0
    9.0510   10.2190   23.7650 N   0  0  0  0  0  0  0  0  0  0  0  0
    9.8950    9.3200   23.0110 C   0  0  0  0  0  0  0  0  0  0  0  0
  1  2  1  0
  2  3  1  0
  2  4  2  3
  4  5  1  0
  5  6  2  0
  5  7  1  0
  7  8  1  0
  8  9  2  0
  9 10  1  0
  9 11  1  0
 11 12  1  0
 11 13  2  0
 13 14  1  0
 14 15  1  0
 14  8  1  0
A    1
 C1 
A    2
 C2 
A    3
 C3 
A    4
 C4 
A    5
 C5 
A    6
 O1 
A    7
 N1 
A    8
 C6 
A    9
 C7 
A   10
 C8 
A   11
 C9 
A   12
 C10
A   13
 N2 
A   14
 N3 
A   15
 C11
M  END
>  <similarity>  (182) 
1.0

>  <smiles>  (182) 
CC(C)=CC(=O)Nc1c(C)c(C)nn1C

>  <cmpd_id>  (182) 
ENAMINE:Z1144426812

>  <used_subnode>  (182) 
c1cn[nH]c1

>  <used_synthon>  (182) 
CC(C)=CC(=O)N[Xe]

>  <ref_subnode>  (182) 
c1cn[nH]c1

>  <ref_synthon>  (182) 
N#CCC(=O)N[Xe]

>  <fragmentA>  (182) 
x0556_0A

>  <fragmentB>  (182) 
x0310_0A

>  <HA>  (182) 
15

>  <HBD>  (182) 
1

>  <HBA>  (182) 
3

>  <MW>  (182) 
207.137162164

>  <TPSA>  (182) 
46.92

>  <LogP>  (182) 
1.94164

>  <RBs>  (182) 
2

>  <G_bound>  (182) 
-11.206094348030087

>  <G_unbound>  (182) 
0.1769872812354177

>  <deltaG>  (182) 
-11.383081629265504

>  <comRMSD>  (182) 
0.2440601458990841

>  <substructure_overlap_check>  (182) 
True

>  <energy_ratio_check>  (182) 
True

>  <const_energy/unconst_energy>  (182) 
2.953643811583686

>  <sucos>  (182) 
0.6266074793630234

>  <interactions>  (182) 
Hydrophobic_PRO-107,Hydrophobic_HIS-21,Hydrophobic_TYR-89,HBDonor_SER-125,Hydrophobic_TYR-90

>  <total_num_ints>  (182) 
5

>  <total_num_ints_nonhyd>  (182) 
1

>  <num_uniq_frag_ints>  (182) 
1

>  <num_repl_uniq_ints>  (182) 
1

>  <num_uniq_ints_lost>  (182) 
0

>  <num_new_uniq_ints>  (182) 
4

>  <int_check>  (182) 
True

>  <ref_url>  (182) 
https://pubs.acs.org/doi/10.1021/acs.jcim.3c00276?fig=tgr1&ref=pdf

>  <submitter_name>  (182) 
Steph Wills

>  <submitter_institution>  (182) 
University of Oxford

>  <submitter_email>  (182) 
stephanie.wills@balliol.ox.ac.uk

>  <generation_date>  (182) 
2023-11-23

>  <method>  (182) 
FragNetv2

>  <original SMILES>  (182) 
CC(C)=CC(=O)Nc1c(C)c(C)nn1C

>  <original_name>  (182) 
x0556_0A-x0310_0A_39743_B1X_rgrp-0

>  <ref_mols>  (182) 
x0556_0A,x0310_0A

>  <ref_pdb>  (182) 
x0310_0A

>  <rationale>  (182) 
FragNet: 1 round bioisosteric merging incl c1cn[nH]c1 and CC(C)=CC(=O)N[Xe] replacing N#CCC(=O)N[Xe]

$$$$
x0556_0A-x0310_0A_25131_B1X_rgrp-0
     RDKit          3D

 16 16  0  0  0  0  0  0  0  0999 V2000
    5.6740   10.3570   26.9480 C   0  0  0  0  0  0  0  0  0  0  0  0
    6.3980   11.4110   26.1830 C   0  0  0  0  0  0  0  0  0  0  0  0
    7.4160   11.0730   25.2870 C   0  0  0  0  0  0  0  0  0  0  0  0
    8.1470   11.9980   24.6160 C   0  0  0  0  0  0  0  0  0  0  0  0
    9.0750   11.4170   23.8090 C   0  0  0  0  0  0  0  0  0  0  0  0
    9.9800   12.1360   23.0060 N   0  0  0  0  0  0  0  0  0  0  0  0
   10.7900   13.0690   23.5820 C   0  0  0  0  0  0  0  0  0  0  0  0
   10.4610   13.6510   24.6220 O   0  0  0  0  0  0  0  0  0  0  0  0
   12.1220   13.4670   23.0230 C   0  0  0  0  0  0  0  0  0  0  0  0
   12.3900   15.1570   23.5360 S   0  0  0  0  0  0  0  0  0  0  0  0
   12.0950   15.9200   21.9400 C   0  0  0  0  0  0  0  0  0  0  0  0
   10.9910   15.4080   21.3480 F   0  0  0  0  0  0  0  0  0  0  0  0
   13.1380   15.6080   21.1420 F   0  0  0  0  0  0  0  0  0  0  0  0
    8.8770   10.1050   24.0160 N   0  0  0  0  0  0  0  0  0  0  0  0
    9.5950    9.0160   23.4130 C   0  0  0  0  0  0  0  0  0  0  0  0
    7.8660    9.8490   24.9160 N   0  0  0  0  0  0  0  0  0  0  0  0
  1  2  1  0
  2  3  1  0
  3  4  1  0
  4  5  2  0
  5  6  1  0
  6  7  1  0
  7  8  2  0
  7  9  1  0
  9 10  1  0
 10 11  1  0
 11 12  1  0
 11 13  1  0
  5 14  1  0
 14 15  1  0
 14 16  1  0
 16  3  2  0
A    1
 C1 
A    2
 C2 
A    3
 C3 
A    4
 C4 
A    5
 C5 
A    6
 N1 
A    7
 C6 
A    8
 O1 
A    9
 C7 
A   10
 S1 
A   11
 C8 
A   12
 F1 
A   13
 F2 
A   14
 N2 
A   15
 C9 
A   16
 N3 
M  END
>  <similarity>  (183) 
1.0

>  <smiles>  (183) 
CCc1cc(NC(=O)CSC(F)F)n(C)n1

>  <cmpd_id>  (183) 
ENAMINE:Z2269136516

>  <used_subnode>  (183) 
c1cn[nH]c1

>  <used_synthon>  (183) 
O=C(CSC(F)F)N[Xe]

>  <ref_subnode>  (183) 
c1cn[nH]c1

>  <ref_synthon>  (183) 
N#CCC(=O)N[Xe]

>  <fragmentA>  (183) 
x0556_0A

>  <fragmentB>  (183) 
x0310_0A

>  <HA>  (183) 
16

>  <HBD>  (183) 
1

>  <HBA>  (183) 
4

>  <MW>  (183) 
249.074739476

>  <TPSA>  (183) 
46.92

>  <LogP>  (183) 
1.8768

>  <RBs>  (183) 
5

>  <G_bound>  (183) 
-7.7662567968401985

>  <G_unbound>  (183) 
0.8247898072504917

>  <deltaG>  (183) 
-8.59104660409069

>  <comRMSD>  (183) 
0.3400467924808085

>  <substructure_overlap_check>  (183) 
True

>  <energy_ratio_check>  (183) 
True

>  <const_energy/unconst_energy>  (183) 
1.9939448132407327

>  <sucos>  (183) 
0.6283250067358114

>  <interactions>  (183) 
Hydrophobic_PRO-107,Hydrophobic_HIS-21,Hydrophobic_TYR-89,HBDonor_SER-125

>  <total_num_ints>  (183) 
4

>  <total_num_ints_nonhyd>  (183) 
1

>  <num_uniq_frag_ints>  (183) 
1

>  <num_repl_uniq_ints>  (183) 
1

>  <num_uniq_ints_lost>  (183) 
0

>  <num_new_uniq_ints>  (183) 
3

>  <int_check>  (183) 
True

>  <ref_url>  (183) 
https://pubs.acs.org/doi/10.1021/acs.jcim.3c00276?fig=tgr1&ref=pdf

>  <submitter_name>  (183) 
Steph Wills

>  <submitter_institution>  (183) 
University of Oxford

>  <submitter_email>  (183) 
stephanie.wills@balliol.ox.ac.uk

>  <generation_date>  (183) 
2023-11-23

>  <method>  (183) 
FragNetv2

>  <original SMILES>  (183) 
CCc1cc(NC(=O)CSC(F)F)n(C)n1

>  <original_name>  (183) 
x0556_0A-x0310_0A_25131_B1X_rgrp-0

>  <ref_mols>  (183) 
x0556_0A,x0310_0A

>  <ref_pdb>  (183) 
x0310_0A

>  <rationale>  (183) 
FragNet: 1 round bioisosteric merging incl c1cn[nH]c1 and O=C(CSC(F)F)N[Xe] replacing N#CCC(=O)N[Xe]

$$$$
x0556_0A-x0310_0A_24476_B1X_rgrp-0
     RDKit          3D

 16 16  0  0  0  0  0  0  0  0999 V2000
   10.7460   14.9180   19.8670 C   0  0  0  0  0  0  0  0  0  0  0  0
   10.2480   14.3060   21.1340 C   0  0  0  0  0  0  0  0  0  0  0  0
   11.0550   13.9490   22.2080 C   0  0  0  0  0  0  0  0  0  0  0  0
   12.4130   14.1650   22.1530 C   0  0  0  0  0  0  0  0  0  0  0  0
   12.7250   15.4930   22.2610 C   0  0  0  0  0  0  0  0  0  0  0  0
   10.5400   13.3110   23.4390 C   0  0  0  0  0  0  0  0  0  0  0  0
   10.7920   13.7470   24.5640 O   0  0  0  0  0  0  0  0  0  0  0  0
    9.8170   12.2410   23.0440 N   0  0  0  0  0  0  0  0  0  0  0  0
    8.9260   11.5870   23.8570 C   0  0  0  0  0  0  0  0  0  0  0  0
    7.7760   11.9960   24.7730 C   0  0  0  0  0  0  0  0  0  0  0  0
    7.3610   13.4630   24.9520 C   0  0  0  0  0  0  0  0  0  0  0  0
    7.2990   10.7890   25.3070 C   0  0  0  0  0  0  0  0  0  0  0  0
    6.1770   10.5050   26.2750 C   0  0  0  0  0  0  0  0  0  0  0  0
    7.9920    9.7380   24.8410 N   0  0  0  0  0  0  0  0  0  0  0  0
    8.9360   10.2210   23.9950 N   0  0  0  0  0  0  0  0  0  0  0  0
    9.8340    9.2910   23.3360 C   0  0  0  0  0  0  0  0  0  0  0  0
  1  2  1  0
  2  3  2  3
  3  4  1  0
  4  5  1  0
  3  6  1  0
  6  7  2  0
  6  8  1  0
  8  9  1  0
  9 10  2  0
 10 11  1  0
 10 12  1  0
 12 13  1  0
 12 14  2  0
 14 15  1  0
 15 16  1  0
 15  9  1  0
A    1
 C1 
A    2
 C2 
A    3
 C3 
A    4
 C4 
A    5
 C5 
A    6
 C6 
A    7
 O1 
A    8
 N1 
A    9
 C7 
A   10
 C8 
A   11
 C9 
A   12
 C10
A   13
 C11
A   14
 N2 
A   15
 N3 
A   16
 C12
M  END
>  <similarity>  (184) 
1.0

>  <smiles>  (184) 
CC=C(CC)C(=O)Nc1c(C)c(C)nn1C

>  <cmpd_id>  (184) 
ENAMINE:Z1832661270

>  <used_subnode>  (184) 
c1cn[nH]c1

>  <used_synthon>  (184) 
CC=C(CC)C(=O)N[Xe]

>  <ref_subnode>  (184) 
c1cn[nH]c1

>  <ref_synthon>  (184) 
N#CCC(=O)N[Xe]

>  <fragmentA>  (184) 
x0556_0A

>  <fragmentB>  (184) 
x0310_0A

>  <HA>  (184) 
16

>  <HBD>  (184) 
1

>  <HBA>  (184) 
3

>  <MW>  (184) 
221.152812228

>  <TPSA>  (184) 
46.92

>  <LogP>  (184) 
2.33174

>  <RBs>  (184) 
3

>  <G_bound>  (184) 
-12.397209225047616

>  <G_unbound>  (184) 
-0.29909471193534864

>  <deltaG>  (184) 
-12.098114513112268

>  <comRMSD>  (184) 
0.2798525243047209

>  <substructure_overlap_check>  (184) 
True

>  <energy_ratio_check>  (184) 
True

>  <const_energy/unconst_energy>  (184) 
2.4730110236571248

>  <sucos>  (184) 
0.6355353913003072

>  <interactions>  (184) 
Hydrophobic_PRO-107,Hydrophobic_HIS-21,Hydrophobic_TYR-89,HBDonor_SER-125,Hydrophobic_TYR-90,Hydrophobic_THR-126

>  <total_num_ints>  (184) 
6

>  <total_num_ints_nonhyd>  (184) 
1

>  <num_uniq_frag_ints>  (184) 
1

>  <num_repl_uniq_ints>  (184) 
1

>  <num_uniq_ints_lost>  (184) 
0

>  <num_new_uniq_ints>  (184) 
5

>  <int_check>  (184) 
True

>  <ref_url>  (184) 
https://pubs.acs.org/doi/10.1021/acs.jcim.3c00276?fig=tgr1&ref=pdf

>  <submitter_name>  (184) 
Steph Wills

>  <submitter_institution>  (184) 
University of Oxford

>  <submitter_email>  (184) 
stephanie.wills@balliol.ox.ac.uk

>  <generation_date>  (184) 
2023-11-23

>  <method>  (184) 
FragNetv2

>  <original SMILES>  (184) 
CC=C(CC)C(=O)Nc1c(C)c(C)nn1C

>  <original_name>  (184) 
x0556_0A-x0310_0A_24476_B1X_rgrp-0

>  <ref_mols>  (184) 
x0556_0A,x0310_0A

>  <ref_pdb>  (184) 
x0310_0A

>  <rationale>  (184) 
FragNet: 1 round bioisosteric merging incl c1cn[nH]c1 and CC=C(CC)C(=O)N[Xe] replacing N#CCC(=O)N[Xe]

$$$$
